/*---------------------------------------------------------------------------*\
| =========                 |                                                 |
| \\      /  F ield         | OpenFOAM: The Open Source CFD Toolbox           |
|  \\    /   O peration     | Version:  2112                                  |
|   \\  /    A nd           | Website:  www.openfoam.com                      |
|    \\/     M anipulation  |                                                 |
\*---------------------------------------------------------------------------*/
Build  : _6e1fca0e-20220610 OPENFOAM=2112 patch=220610 version=2112
Arch   : "LSB;label=32;scalar=64"
Exec   : simpleFoam -parallel -case periodichills_tuner
Date   : Jul 02 2022
Time   : 11:39:02
Host   : pop-os
PID    : 12942
I/O    : uncollated
Case   : /home/ryley/ML/turborans/examples/openfoam_periodichills/periodichills_tuner
nProcs : 8
Hosts  :
(
    (pop-os 8)
)
Pstream initialized with:
    floatTransfer      : 0
    nProcsSimpleSum    : 0
    commsType          : nonBlocking
    polling iterations : 0
trapFpe: Floating point exception trapping enabled (FOAM_SIGFPE).
fileModificationChecking : Monitoring run-time modified files using timeStampMaster (fileModificationSkew 5, maxFileModificationPolls 20)
allowSystemOperations : Allowing user-supplied system call operations

// * * * * * * * * * * * * * * * * * * * * * * * * * * * * * * * * * * * * * //
Create time

--> FOAM Warning :
    From void Foam::Time::setControls()
    in file db/Time/Time.C at line 335
    Reading "processor0/0/uniform/time" at line 18 to 26
    Time read from time dictionary 20000 differs from actual time 0.
    This may cause unexpected database behaviour. If you are not interested
    in preserving time state delete the time dictionary.
Create mesh for time = 0


SIMPLE: convergence criteria
    field p	 tolerance 1e-05
    field U	 tolerance 1e-05
    field "(k|epsilon|omega|f|v2)"	 tolerance 1e-05

Reading field p

Reading field U

Reading/calculating face flux field phi

Selecting incompressible transport model Newtonian
Selecting turbulence model type RAS
Selecting RAS turbulence model kOmegaSST
Selecting patchDistMethod meshWave
RAS
{
    RASModel        kOmegaSST;
    turbulence      on;
    printCoeffs     on;
    betaStar        0.0737213;
    a1              0.256157;
    alphaK1         0.85;
    alphaK2         1;
    alphaOmega1     0.5;
    alphaOmega2     0.856;
    gamma1          0.555556;
    gamma2          0.44;
    beta1           0.075;
    beta2           0.0828;
    b1              1;
    c1              10;
    F3              false;
    decayControl    false;
    kInf            0;
    omegaInf        0;
}

No MRF models present

Creating finite volume options from "system/fvOptions"

Selecting finite volume options type meanVelocityForce
    Source: momentumSource
    - selecting all cells
    - selected 14751 cell(s) with volume 2.54013
    Reading pressure gradient from file
    Initial pressure gradient = 6.28039e-06


Starting time loop

Time = 1

DILUPBiCGStab:  Solving for Ux, Initial residual = 9.46316e-05, Final residual = 9.17088e-11, No Iterations 5
DILUPBiCGStab:  Solving for Uy, Initial residual = 0.00024875, Final residual = 3.15981e-11, No Iterations 5
Pressure gradient source: uncorrected Ubar = 0.0201881, pressure gradient = 6.15436e-06
GAMG:  Solving for p, Initial residual = 0.0555532, Final residual = 0.00189594, No Iterations 3
GAMG:  Solving for p, Initial residual = 0.00797631, Final residual = 0.000274504, No Iterations 3
time step continuity errors : sum local = 5.62934e-08, global = -1.35175e-20, cumulative = 8.28868e-17
Pressure gradient source: uncorrected Ubar = 0.0201881, pressure gradient = 6.0531e-06
DILUPBiCGStab:  Solving for omega, Initial residual = 9.9851e-07, Final residual = 4.2385e-11, No Iterations 3
DILUPBiCGStab:  Solving for k, Initial residual = 0.000614019, Final residual = 4.28026e-11, No Iterations 6
ExecutionTime = 0.07 s  ClockTime = 0 s

Time = 2

DILUPBiCGStab:  Solving for Ux, Initial residual = 9.26243e-05, Final residual = 7.22467e-11, No Iterations 5
DILUPBiCGStab:  Solving for Uy, Initial residual = 0.000232594, Final residual = 4.9373e-11, No Iterations 5
Pressure gradient source: uncorrected Ubar = 0.0201878, pressure gradient = 6.44871e-06
GAMG:  Solving for p, Initial residual = 0.0213088, Final residual = 0.000729202, No Iterations 2
GAMG:  Solving for p, Initial residual = 0.0028151, Final residual = 0.000123053, No Iterations 3
time step continuity errors : sum local = 2.46304e-08, global = 1.53474e-19, cumulative = 8.30403e-17
Pressure gradient source: uncorrected Ubar = 0.020188, pressure gradient = 6.02243e-06
DILUPBiCGStab:  Solving for omega, Initial residual = 9.95776e-07, Final residual = 4.31197e-11, No Iterations 3
DILUPBiCGStab:  Solving for k, Initial residual = 0.000589785, Final residual = 5.50897e-11, No Iterations 6
ExecutionTime = 0.08 s  ClockTime = 0 s

Time = 3

DILUPBiCGStab:  Solving for Ux, Initial residual = 9.08034e-05, Final residual = 1.84559e-11, No Iterations 5
DILUPBiCGStab:  Solving for Uy, Initial residual = 0.000244991, Final residual = 4.96591e-11, No Iterations 5
Pressure gradient source: uncorrected Ubar = 0.0201878, pressure gradient = 6.32808e-06
GAMG:  Solving for p, Initial residual = 0.0133874, Final residual = 0.000445766, No Iterations 1
GAMG:  Solving for p, Initial residual = 0.0011816, Final residual = 4.67082e-05, No Iterations 3
time step continuity errors : sum local = 9.22628e-09, global = 4.58445e-19, cumulative = 8.34987e-17
Pressure gradient source: uncorrected Ubar = 0.020188, pressure gradient = 6.11604e-06
DILUPBiCGStab:  Solving for omega, Initial residual = 9.6506e-07, Final residual = 4.8174e-11, No Iterations 3
DILUPBiCGStab:  Solving for k, Initial residual = 0.000571737, Final residual = 1.79732e-11, No Iterations 6
ExecutionTime = 0.09 s  ClockTime = 0 s

Time = 4

DILUPBiCGStab:  Solving for Ux, Initial residual = 9.10658e-05, Final residual = 4.73606e-11, No Iterations 5
DILUPBiCGStab:  Solving for Uy, Initial residual = 0.000243499, Final residual = 5.55699e-11, No Iterations 5
Pressure gradient source: uncorrected Ubar = 0.020188, pressure gradient = 6.07014e-06
GAMG:  Solving for p, Initial residual = 0.00978234, Final residual = 0.000458394, No Iterations 1
GAMG:  Solving for p, Initial residual = 0.000931427, Final residual = 4.03666e-05, No Iterations 4
time step continuity errors : sum local = 8.11067e-09, global = 5.24837e-20, cumulative = 8.35512e-17
Pressure gradient source: uncorrected Ubar = 0.020188, pressure gradient = 6.16244e-06
DILUPBiCGStab:  Solving for omega, Initial residual = 9.18347e-07, Final residual = 5.30124e-11, No Iterations 3
DILUPBiCGStab:  Solving for k, Initial residual = 0.000556901, Final residual = 9.01016e-11, No Iterations 6
ExecutionTime = 0.11 s  ClockTime = 0 s

Time = 5

DILUPBiCGStab:  Solving for Ux, Initial residual = 9.16842e-05, Final residual = 6.52492e-12, No Iterations 6
DILUPBiCGStab:  Solving for Uy, Initial residual = 0.000241414, Final residual = 3.75354e-11, No Iterations 5
Pressure gradient source: uncorrected Ubar = 0.0201881, pressure gradient = 5.97984e-06
GAMG:  Solving for p, Initial residual = 0.00743893, Final residual = 0.000215962, No Iterations 2
GAMG:  Solving for p, Initial residual = 0.00063592, Final residual = 1.65058e-05, No Iterations 4
time step continuity errors : sum local = 3.25655e-09, global = 1.22983e-19, cumulative = 8.36742e-17
Pressure gradient source: uncorrected Ubar = 0.020188, pressure gradient = 6.13044e-06
DILUPBiCGStab:  Solving for omega, Initial residual = 8.71933e-07, Final residual = 5.86396e-11, No Iterations 3
DILUPBiCGStab:  Solving for k, Initial residual = 0.000544284, Final residual = 8.75827e-11, No Iterations 6
ExecutionTime = 0.12 s  ClockTime = 0 s

Time = 6

DILUPBiCGStab:  Solving for Ux, Initial residual = 9.14696e-05, Final residual = 5.89163e-12, No Iterations 6
DILUPBiCGStab:  Solving for Uy, Initial residual = 0.000242528, Final residual = 4.06655e-11, No Iterations 5
Pressure gradient source: uncorrected Ubar = 0.0201881, pressure gradient = 6.03427e-06
GAMG:  Solving for p, Initial residual = 0.00604188, Final residual = 0.000185701, No Iterations 2
GAMG:  Solving for p, Initial residual = 0.000547931, Final residual = 2.36277e-05, No Iterations 3
time step continuity errors : sum local = 4.73652e-09, global = 5.58801e-20, cumulative = 8.373e-17
Pressure gradient source: uncorrected Ubar = 0.020188, pressure gradient = 6.08237e-06
DILUPBiCGStab:  Solving for omega, Initial residual = 8.29641e-07, Final residual = 6.65769e-11, No Iterations 3
DILUPBiCGStab:  Solving for k, Initial residual = 0.000533367, Final residual = 8.59678e-11, No Iterations 6
ExecutionTime = 0.13 s  ClockTime = 0 s

Time = 7

DILUPBiCGStab:  Solving for Ux, Initial residual = 9.09315e-05, Final residual = 5.28913e-12, No Iterations 6
DILUPBiCGStab:  Solving for Uy, Initial residual = 0.000246395, Final residual = 9.7063e-11, No Iterations 5
Pressure gradient source: uncorrected Ubar = 0.020188, pressure gradient = 6.08496e-06
GAMG:  Solving for p, Initial residual = 0.00519706, Final residual = 0.000178385, No Iterations 2
GAMG:  Solving for p, Initial residual = 0.000500285, Final residual = 2.21573e-05, No Iterations 3
time step continuity errors : sum local = 4.42052e-09, global = 1.33008e-19, cumulative = 8.38631e-17
Pressure gradient source: uncorrected Ubar = 0.020188, pressure gradient = 6.06538e-06
DILUPBiCGStab:  Solving for omega, Initial residual = 7.91646e-07, Final residual = 7.63602e-11, No Iterations 3
DILUPBiCGStab:  Solving for k, Initial residual = 0.000523569, Final residual = 8.3799e-11, No Iterations 6
ExecutionTime = 0.14 s  ClockTime = 0 s

Time = 8

DILUPBiCGStab:  Solving for Ux, Initial residual = 9.06778e-05, Final residual = 8.09455e-11, No Iterations 5
DILUPBiCGStab:  Solving for Uy, Initial residual = 0.000250556, Final residual = 6.39775e-11, No Iterations 5
Pressure gradient source: uncorrected Ubar = 0.020188, pressure gradient = 6.06636e-06
GAMG:  Solving for p, Initial residual = 0.00466815, Final residual = 0.000167028, No Iterations 2
GAMG:  Solving for p, Initial residual = 0.000455836, Final residual = 1.48562e-05, No Iterations 4
time step continuity errors : sum local = 3.02046e-09, global = -1.04804e-20, cumulative = 8.38526e-17
Pressure gradient source: uncorrected Ubar = 0.020188, pressure gradient = 6.06578e-06
DILUPBiCGStab:  Solving for omega, Initial residual = 7.59888e-07, Final residual = 8.70963e-11, No Iterations 3
DILUPBiCGStab:  Solving for k, Initial residual = 0.000514555, Final residual = 8.22488e-11, No Iterations 6
ExecutionTime = 0.15 s  ClockTime = 0 s

Time = 9

DILUPBiCGStab:  Solving for Ux, Initial residual = 9.06854e-05, Final residual = 7.08538e-11, No Iterations 5
DILUPBiCGStab:  Solving for Uy, Initial residual = 0.000254378, Final residual = 6.36734e-11, No Iterations 5
Pressure gradient source: uncorrected Ubar = 0.020188, pressure gradient = 6.02682e-06
GAMG:  Solving for p, Initial residual = 0.00433037, Final residual = 0.000157723, No Iterations 2
GAMG:  Solving for p, Initial residual = 0.000420162, Final residual = 1.58956e-05, No Iterations 4
time step continuity errors : sum local = 3.28196e-09, global = 6.75194e-20, cumulative = 8.39201e-17
Pressure gradient source: uncorrected Ubar = 0.020188, pressure gradient = 6.0603e-06
DILUPBiCGStab:  Solving for omega, Initial residual = 7.32245e-07, Final residual = 4.15801e-12, No Iterations 4
DILUPBiCGStab:  Solving for k, Initial residual = 0.000506285, Final residual = 8.05116e-11, No Iterations 6
ExecutionTime = 0.17 s  ClockTime = 0 s

Time = 10

DILUPBiCGStab:  Solving for Ux, Initial residual = 9.06893e-05, Final residual = 6.64295e-11, No Iterations 5
DILUPBiCGStab:  Solving for Uy, Initial residual = 0.000257975, Final residual = 6.50118e-11, No Iterations 5
Pressure gradient source: uncorrected Ubar = 0.020188, pressure gradient = 6.00877e-06
GAMG:  Solving for p, Initial residual = 0.00407897, Final residual = 0.000156266, No Iterations 2
GAMG:  Solving for p, Initial residual = 0.000407509, Final residual = 1.51616e-05, No Iterations 4
time step continuity errors : sum local = 3.12783e-09, global = 7.2034e-20, cumulative = 8.39921e-17
Pressure gradient source: uncorrected Ubar = 0.020188, pressure gradient = 6.04561e-06
DILUPBiCGStab:  Solving for omega, Initial residual = 7.07776e-07, Final residual = 4.39926e-12, No Iterations 4
DILUPBiCGStab:  Solving for k, Initial residual = 0.000498667, Final residual = 8.06542e-11, No Iterations 6
ExecutionTime = 0.18 s  ClockTime = 0 s

Time = 11

DILUPBiCGStab:  Solving for Ux, Initial residual = 9.06282e-05, Final residual = 6.15198e-11, No Iterations 5
DILUPBiCGStab:  Solving for Uy, Initial residual = 0.000262101, Final residual = 6.72145e-11, No Iterations 5
Pressure gradient source: uncorrected Ubar = 0.020188, pressure gradient = 6.00828e-06
GAMG:  Solving for p, Initial residual = 0.00389809, Final residual = 0.000153769, No Iterations 2
GAMG:  Solving for p, Initial residual = 0.000394788, Final residual = 1.41975e-05, No Iterations 4
time step continuity errors : sum local = 2.90445e-09, global = -7.36119e-20, cumulative = 8.39185e-17
Pressure gradient source: uncorrected Ubar = 0.020188, pressure gradient = 6.03093e-06
DILUPBiCGStab:  Solving for omega, Initial residual = 6.8617e-07, Final residual = 4.57086e-12, No Iterations 4
DILUPBiCGStab:  Solving for k, Initial residual = 0.000491487, Final residual = 8.17058e-11, No Iterations 6
ExecutionTime = 0.19 s  ClockTime = 1 s

Time = 12

DILUPBiCGStab:  Solving for Ux, Initial residual = 9.05649e-05, Final residual = 6.09484e-11, No Iterations 5
DILUPBiCGStab:  Solving for Uy, Initial residual = 0.000266867, Final residual = 7.01068e-11, No Iterations 5
Pressure gradient source: uncorrected Ubar = 0.020188, pressure gradient = 6.00516e-06
GAMG:  Solving for p, Initial residual = 0.00371927, Final residual = 0.000151633, No Iterations 2
GAMG:  Solving for p, Initial residual = 0.000380782, Final residual = 1.44112e-05, No Iterations 4
time step continuity errors : sum local = 2.94659e-09, global = 1.36194e-19, cumulative = 8.40547e-17
Pressure gradient source: uncorrected Ubar = 0.020188, pressure gradient = 6.02059e-06
DILUPBiCGStab:  Solving for omega, Initial residual = 6.65942e-07, Final residual = 4.71345e-12, No Iterations 4
DILUPBiCGStab:  Solving for k, Initial residual = 0.000484593, Final residual = 8.11272e-11, No Iterations 6
ExecutionTime = 0.2 s  ClockTime = 1 s

Time = 13

DILUPBiCGStab:  Solving for Ux, Initial residual = 9.055e-05, Final residual = 6.08547e-11, No Iterations 5
DILUPBiCGStab:  Solving for Uy, Initial residual = 0.000271901, Final residual = 7.51549e-11, No Iterations 5
Pressure gradient source: uncorrected Ubar = 0.020188, pressure gradient = 5.99453e-06
GAMG:  Solving for p, Initial residual = 0.00352413, Final residual = 0.000149961, No Iterations 2
GAMG:  Solving for p, Initial residual = 0.000367641, Final residual = 1.50511e-05, No Iterations 4
time step continuity errors : sum local = 3.09173e-09, global = -2.67044e-20, cumulative = 8.4028e-17
Pressure gradient source: uncorrected Ubar = 0.020188, pressure gradient = 6.01203e-06
DILUPBiCGStab:  Solving for omega, Initial residual = 6.4689e-07, Final residual = 4.84643e-12, No Iterations 4
DILUPBiCGStab:  Solving for k, Initial residual = 0.000477952, Final residual = 7.90331e-11, No Iterations 6
ExecutionTime = 0.21 s  ClockTime = 1 s

Time = 14

DILUPBiCGStab:  Solving for Ux, Initial residual = 9.05711e-05, Final residual = 6.01046e-11, No Iterations 5
DILUPBiCGStab:  Solving for Uy, Initial residual = 0.000277088, Final residual = 7.97811e-11, No Iterations 5
Pressure gradient source: uncorrected Ubar = 0.020188, pressure gradient = 5.98326e-06
GAMG:  Solving for p, Initial residual = 0.00338619, Final residual = 0.000148598, No Iterations 2
GAMG:  Solving for p, Initial residual = 0.000360139, Final residual = 1.54053e-05, No Iterations 4
time step continuity errors : sum local = 3.1704e-09, global = 2.00415e-19, cumulative = 8.42284e-17
Pressure gradient source: uncorrected Ubar = 0.020188, pressure gradient = 6.00278e-06
DILUPBiCGStab:  Solving for omega, Initial residual = 6.28849e-07, Final residual = 4.95189e-12, No Iterations 4
DILUPBiCGStab:  Solving for k, Initial residual = 0.000471513, Final residual = 7.70532e-11, No Iterations 6
ExecutionTime = 0.22 s  ClockTime = 1 s

Time = 15

DILUPBiCGStab:  Solving for Ux, Initial residual = 9.06069e-05, Final residual = 5.85102e-11, No Iterations 5
DILUPBiCGStab:  Solving for Uy, Initial residual = 0.000282476, Final residual = 8.47997e-11, No Iterations 5
Pressure gradient source: uncorrected Ubar = 0.020188, pressure gradient = 5.97533e-06
GAMG:  Solving for p, Initial residual = 0.00328329, Final residual = 0.000148101, No Iterations 2
GAMG:  Solving for p, Initial residual = 0.00035627, Final residual = 1.55695e-05, No Iterations 4
time step continuity errors : sum local = 3.2012e-09, global = 9.90661e-20, cumulative = 8.43275e-17
Pressure gradient source: uncorrected Ubar = 0.020188, pressure gradient = 5.99315e-06
DILUPBiCGStab:  Solving for omega, Initial residual = 6.12367e-07, Final residual = 5.03567e-12, No Iterations 4
DILUPBiCGStab:  Solving for k, Initial residual = 0.000465296, Final residual = 7.57126e-11, No Iterations 6
ExecutionTime = 0.24 s  ClockTime = 1 s

Time = 16

DILUPBiCGStab:  Solving for Ux, Initial residual = 9.065e-05, Final residual = 5.72712e-11, No Iterations 5
DILUPBiCGStab:  Solving for Uy, Initial residual = 0.00028814, Final residual = 8.96763e-11, No Iterations 5
Pressure gradient source: uncorrected Ubar = 0.020188, pressure gradient = 5.96908e-06
GAMG:  Solving for p, Initial residual = 0.0031669, Final residual = 0.000148439, No Iterations 2
GAMG:  Solving for p, Initial residual = 0.000349521, Final residual = 1.58375e-05, No Iterations 4
time step continuity errors : sum local = 3.25426e-09, global = 1.89245e-19, cumulative = 8.45167e-17
Pressure gradient source: uncorrected Ubar = 0.020188, pressure gradient = 5.98415e-06
DILUPBiCGStab:  Solving for omega, Initial residual = 5.97566e-07, Final residual = 5.09019e-12, No Iterations 4
DILUPBiCGStab:  Solving for k, Initial residual = 0.000459341, Final residual = 7.48788e-11, No Iterations 6
ExecutionTime = 0.25 s  ClockTime = 1 s

Time = 17

DILUPBiCGStab:  Solving for Ux, Initial residual = 9.07144e-05, Final residual = 5.60988e-11, No Iterations 5
DILUPBiCGStab:  Solving for Uy, Initial residual = 0.000294066, Final residual = 9.53317e-11, No Iterations 5
Pressure gradient source: uncorrected Ubar = 0.020188, pressure gradient = 5.96249e-06
GAMG:  Solving for p, Initial residual = 0.00307933, Final residual = 0.000149091, No Iterations 2
GAMG:  Solving for p, Initial residual = 0.000344458, Final residual = 1.62831e-05, No Iterations 4
time step continuity errors : sum local = 3.34824e-09, global = 1.5086e-19, cumulative = 8.46676e-17
Pressure gradient source: uncorrected Ubar = 0.020188, pressure gradient = 5.97596e-06
DILUPBiCGStab:  Solving for omega, Initial residual = 5.83724e-07, Final residual = 5.1119e-12, No Iterations 4
DILUPBiCGStab:  Solving for k, Initial residual = 0.00045368, Final residual = 7.54104e-11, No Iterations 6
ExecutionTime = 0.26 s  ClockTime = 1 s

Time = 18

DILUPBiCGStab:  Solving for Ux, Initial residual = 9.07987e-05, Final residual = 5.49478e-11, No Iterations 5
DILUPBiCGStab:  Solving for Uy, Initial residual = 0.000300128, Final residual = 2.89465e-11, No Iterations 6
Pressure gradient source: uncorrected Ubar = 0.020188, pressure gradient = 5.9556e-06
GAMG:  Solving for p, Initial residual = 0.00300081, Final residual = 8.17499e-05, No Iterations 3
GAMG:  Solving for p, Initial residual = 0.000304286, Final residual = 9.81553e-06, No Iterations 4
time step continuity errors : sum local = 1.97879e-09, global = -1.97216e-20, cumulative = 8.46479e-17
Pressure gradient source: uncorrected Ubar = 0.020188, pressure gradient = 5.96833e-06
DILUPBiCGStab:  Solving for omega, Initial residual = 5.70622e-07, Final residual = 5.10787e-12, No Iterations 4
DILUPBiCGStab:  Solving for k, Initial residual = 0.000448372, Final residual = 7.71554e-11, No Iterations 6
ExecutionTime = 0.27 s  ClockTime = 1 s

Time = 19

DILUPBiCGStab:  Solving for Ux, Initial residual = 9.08863e-05, Final residual = 5.52734e-11, No Iterations 5
DILUPBiCGStab:  Solving for Uy, Initial residual = 0.000306324, Final residual = 2.95449e-11, No Iterations 6
Pressure gradient source: uncorrected Ubar = 0.020188, pressure gradient = 5.94905e-06
GAMG:  Solving for p, Initial residual = 0.00294317, Final residual = 8.46819e-05, No Iterations 3
GAMG:  Solving for p, Initial residual = 0.000304747, Final residual = 8.71789e-06, No Iterations 4
time step continuity errors : sum local = 1.74467e-09, global = 2.582e-19, cumulative = 8.49061e-17
Pressure gradient source: uncorrected Ubar = 0.020188, pressure gradient = 5.96076e-06
DILUPBiCGStab:  Solving for omega, Initial residual = 5.58072e-07, Final residual = 5.07551e-12, No Iterations 4
DILUPBiCGStab:  Solving for k, Initial residual = 0.000443337, Final residual = 7.73128e-11, No Iterations 6
ExecutionTime = 0.29 s  ClockTime = 1 s

Time = 20

DILUPBiCGStab:  Solving for Ux, Initial residual = 9.10001e-05, Final residual = 5.6746e-11, No Iterations 5
DILUPBiCGStab:  Solving for Uy, Initial residual = 0.000312683, Final residual = 3.02874e-11, No Iterations 6
Pressure gradient source: uncorrected Ubar = 0.020188, pressure gradient = 5.94345e-06
GAMG:  Solving for p, Initial residual = 0.00288886, Final residual = 8.48316e-05, No Iterations 3
GAMG:  Solving for p, Initial residual = 0.000302898, Final residual = 8.10077e-06, No Iterations 4
time step continuity errors : sum local = 1.62592e-09, global = -6.16675e-20, cumulative = 8.48444e-17
Pressure gradient source: uncorrected Ubar = 0.020188, pressure gradient = 5.95344e-06
DILUPBiCGStab:  Solving for omega, Initial residual = 5.46155e-07, Final residual = 5.01547e-12, No Iterations 4
DILUPBiCGStab:  Solving for k, Initial residual = 0.000438481, Final residual = 7.68334e-11, No Iterations 6
ExecutionTime = 0.3 s  ClockTime = 1 s

Time = 21

DILUPBiCGStab:  Solving for Ux, Initial residual = 9.11151e-05, Final residual = 5.68082e-11, No Iterations 5
DILUPBiCGStab:  Solving for Uy, Initial residual = 0.000319127, Final residual = 3.11122e-11, No Iterations 6
Pressure gradient source: uncorrected Ubar = 0.020188, pressure gradient = 5.93826e-06
GAMG:  Solving for p, Initial residual = 0.00282415, Final residual = 8.62211e-05, No Iterations 3
GAMG:  Solving for p, Initial residual = 0.000302747, Final residual = 8.13316e-06, No Iterations 4
time step continuity errors : sum local = 1.63561e-09, global = 3.71992e-20, cumulative = 8.48816e-17
Pressure gradient source: uncorrected Ubar = 0.020188, pressure gradient = 5.94667e-06
DILUPBiCGStab:  Solving for omega, Initial residual = 5.34664e-07, Final residual = 4.93381e-12, No Iterations 4
DILUPBiCGStab:  Solving for k, Initial residual = 0.000433774, Final residual = 8.37747e-11, No Iterations 6
ExecutionTime = 0.31 s  ClockTime = 1 s

Time = 22

DILUPBiCGStab:  Solving for Ux, Initial residual = 9.12412e-05, Final residual = 5.65978e-11, No Iterations 5
DILUPBiCGStab:  Solving for Uy, Initial residual = 0.000325758, Final residual = 3.168e-11, No Iterations 6
Pressure gradient source: uncorrected Ubar = 0.020188, pressure gradient = 5.93298e-06
GAMG:  Solving for p, Initial residual = 0.00275951, Final residual = 8.7775e-05, No Iterations 3
GAMG:  Solving for p, Initial residual = 0.000303847, Final residual = 8.23363e-06, No Iterations 4
time step continuity errors : sum local = 1.65911e-09, global = 2.54402e-19, cumulative = 8.5136e-17
Pressure gradient source: uncorrected Ubar = 0.020188, pressure gradient = 5.94033e-06
DILUPBiCGStab:  Solving for omega, Initial residual = 5.23665e-07, Final residual = 4.84416e-12, No Iterations 4
DILUPBiCGStab:  Solving for k, Initial residual = 0.000429217, Final residual = 9.94062e-11, No Iterations 6
ExecutionTime = 0.33 s  ClockTime = 1 s

Time = 23

DILUPBiCGStab:  Solving for Ux, Initial residual = 9.13819e-05, Final residual = 5.66457e-11, No Iterations 5
DILUPBiCGStab:  Solving for Uy, Initial residual = 0.000332558, Final residual = 3.23371e-11, No Iterations 6
Pressure gradient source: uncorrected Ubar = 0.020188, pressure gradient = 5.92788e-06
GAMG:  Solving for p, Initial residual = 0.0026953, Final residual = 8.9163e-05, No Iterations 3
GAMG:  Solving for p, Initial residual = 0.0003054, Final residual = 8.16662e-06, No Iterations 4
time step continuity errors : sum local = 1.65199e-09, global = 1.33698e-20, cumulative = 8.51494e-17
Pressure gradient source: uncorrected Ubar = 0.020188, pressure gradient = 5.93425e-06
DILUPBiCGStab:  Solving for omega, Initial residual = 5.1322e-07, Final residual = 4.71943e-12, No Iterations 4
DILUPBiCGStab:  Solving for k, Initial residual = 0.000424836, Final residual = 2.61913e-11, No Iterations 6
ExecutionTime = 0.34 s  ClockTime = 1 s

Time = 24

DILUPBiCGStab:  Solving for Ux, Initial residual = 9.15386e-05, Final residual = 5.67205e-11, No Iterations 5
DILUPBiCGStab:  Solving for Uy, Initial residual = 0.000339487, Final residual = 3.29782e-11, No Iterations 6
Pressure gradient source: uncorrected Ubar = 0.020188, pressure gradient = 5.92325e-06
GAMG:  Solving for p, Initial residual = 0.00263894, Final residual = 9.04771e-05, No Iterations 3
GAMG:  Solving for p, Initial residual = 0.000307121, Final residual = 8.01249e-06, No Iterations 4
time step continuity errors : sum local = 1.63066e-09, global = -3.27516e-19, cumulative = 8.48219e-17
Pressure gradient source: uncorrected Ubar = 0.020188, pressure gradient = 5.92843e-06
DILUPBiCGStab:  Solving for omega, Initial residual = 5.03218e-07, Final residual = 4.58668e-12, No Iterations 4
DILUPBiCGStab:  Solving for k, Initial residual = 0.000420566, Final residual = 9.82605e-11, No Iterations 5
ExecutionTime = 0.35 s  ClockTime = 1 s

Time = 25

DILUPBiCGStab:  Solving for Ux, Initial residual = 9.16995e-05, Final residual = 5.7094e-11, No Iterations 5
DILUPBiCGStab:  Solving for Uy, Initial residual = 0.000346552, Final residual = 3.36524e-11, No Iterations 6
Pressure gradient source: uncorrected Ubar = 0.020188, pressure gradient = 5.91896e-06
GAMG:  Solving for p, Initial residual = 0.00258991, Final residual = 9.17466e-05, No Iterations 3
GAMG:  Solving for p, Initial residual = 0.000309495, Final residual = 8.87818e-06, No Iterations 4
time step continuity errors : sum local = 1.79406e-09, global = 2.44128e-19, cumulative = 8.5066e-17
Pressure gradient source: uncorrected Ubar = 0.020188, pressure gradient = 5.92284e-06
DILUPBiCGStab:  Solving for omega, Initial residual = 4.93454e-07, Final residual = 4.46084e-12, No Iterations 4
DILUPBiCGStab:  Solving for k, Initial residual = 0.00041641, Final residual = 9.52324e-11, No Iterations 5
ExecutionTime = 0.37 s  ClockTime = 1 s

Time = 26

DILUPBiCGStab:  Solving for Ux, Initial residual = 9.18679e-05, Final residual = 5.86892e-11, No Iterations 5
DILUPBiCGStab:  Solving for Uy, Initial residual = 0.000353745, Final residual = 3.44079e-11, No Iterations 6
Pressure gradient source: uncorrected Ubar = 0.020188, pressure gradient = 5.91497e-06
GAMG:  Solving for p, Initial residual = 0.00254551, Final residual = 9.29652e-05, No Iterations 3
GAMG:  Solving for p, Initial residual = 0.000312131, Final residual = 8.85019e-06, No Iterations 4
time step continuity errors : sum local = 1.80002e-09, global = -8.28261e-20, cumulative = 8.49832e-17
Pressure gradient source: uncorrected Ubar = 0.020188, pressure gradient = 5.91778e-06
DILUPBiCGStab:  Solving for omega, Initial residual = 4.84018e-07, Final residual = 4.31011e-12, No Iterations 4
DILUPBiCGStab:  Solving for k, Initial residual = 0.000412376, Final residual = 9.28055e-11, No Iterations 5
ExecutionTime = 0.38 s  ClockTime = 1 s

Time = 27

DILUPBiCGStab:  Solving for Ux, Initial residual = 9.20486e-05, Final residual = 6.41801e-11, No Iterations 5
DILUPBiCGStab:  Solving for Uy, Initial residual = 0.000361098, Final residual = 3.52885e-11, No Iterations 6
Pressure gradient source: uncorrected Ubar = 0.020188, pressure gradient = 5.91081e-06
GAMG:  Solving for p, Initial residual = 0.00251212, Final residual = 9.40942e-05, No Iterations 3
GAMG:  Solving for p, Initial residual = 0.000314896, Final residual = 8.78872e-06, No Iterations 4
time step continuity errors : sum local = 1.799e-09, global = 7.21406e-20, cumulative = 8.50553e-17
Pressure gradient source: uncorrected Ubar = 0.020188, pressure gradient = 5.91289e-06
DILUPBiCGStab:  Solving for omega, Initial residual = 4.74888e-07, Final residual = 4.15302e-12, No Iterations 4
DILUPBiCGStab:  Solving for k, Initial residual = 0.000408432, Final residual = 9.0818e-11, No Iterations 5
ExecutionTime = 0.4 s  ClockTime = 1 s

Time = 28

DILUPBiCGStab:  Solving for Ux, Initial residual = 9.22401e-05, Final residual = 7.46142e-11, No Iterations 5
DILUPBiCGStab:  Solving for Uy, Initial residual = 0.000368553, Final residual = 3.65985e-11, No Iterations 6
Pressure gradient source: uncorrected Ubar = 0.020188, pressure gradient = 5.90718e-06
GAMG:  Solving for p, Initial residual = 0.0024812, Final residual = 9.52229e-05, No Iterations 3
GAMG:  Solving for p, Initial residual = 0.000318928, Final residual = 8.74631e-06, No Iterations 4
time step continuity errors : sum local = 1.79932e-09, global = 1.26016e-19, cumulative = 8.51813e-17
Pressure gradient source: uncorrected Ubar = 0.020188, pressure gradient = 5.90816e-06
DILUPBiCGStab:  Solving for omega, Initial residual = 4.66108e-07, Final residual = 4.01585e-12, No Iterations 4
DILUPBiCGStab:  Solving for k, Initial residual = 0.000404613, Final residual = 8.90112e-11, No Iterations 5
ExecutionTime = 0.41 s  ClockTime = 1 s

Time = 29

DILUPBiCGStab:  Solving for Ux, Initial residual = 9.24325e-05, Final residual = 9.0518e-11, No Iterations 5
DILUPBiCGStab:  Solving for Uy, Initial residual = 0.000376232, Final residual = 3.84742e-11, No Iterations 6
Pressure gradient source: uncorrected Ubar = 0.020188, pressure gradient = 5.90393e-06
GAMG:  Solving for p, Initial residual = 0.00244895, Final residual = 9.62572e-05, No Iterations 3
GAMG:  Solving for p, Initial residual = 0.000322759, Final residual = 8.72576e-06, No Iterations 4
time step continuity errors : sum local = 1.79916e-09, global = 1.84689e-20, cumulative = 8.51998e-17
Pressure gradient source: uncorrected Ubar = 0.020188, pressure gradient = 5.90371e-06
DILUPBiCGStab:  Solving for omega, Initial residual = 4.57739e-07, Final residual = 3.89293e-12, No Iterations 4
DILUPBiCGStab:  Solving for k, Initial residual = 0.000400883, Final residual = 8.72536e-11, No Iterations 5
ExecutionTime = 0.42 s  ClockTime = 1 s

Time = 30

DILUPBiCGStab:  Solving for Ux, Initial residual = 9.26379e-05, Final residual = 4.60856e-12, No Iterations 6
DILUPBiCGStab:  Solving for Uy, Initial residual = 0.000384064, Final residual = 4.04099e-11, No Iterations 6
Pressure gradient source: uncorrected Ubar = 0.020188, pressure gradient = 5.90077e-06
GAMG:  Solving for p, Initial residual = 0.0024215, Final residual = 9.7276e-05, No Iterations 3
GAMG:  Solving for p, Initial residual = 0.000327005, Final residual = 8.74743e-06, No Iterations 4
time step continuity errors : sum local = 1.80211e-09, global = -8.67107e-20, cumulative = 8.51131e-17
Pressure gradient source: uncorrected Ubar = 0.020188, pressure gradient = 5.89958e-06
DILUPBiCGStab:  Solving for omega, Initial residual = 4.49682e-07, Final residual = 3.76479e-12, No Iterations 4
DILUPBiCGStab:  Solving for k, Initial residual = 0.000397258, Final residual = 8.61272e-11, No Iterations 5
ExecutionTime = 0.43 s  ClockTime = 1 s

Time = 31

DILUPBiCGStab:  Solving for Ux, Initial residual = 9.28612e-05, Final residual = 4.92656e-12, No Iterations 6
DILUPBiCGStab:  Solving for Uy, Initial residual = 0.000391975, Final residual = 4.19033e-11, No Iterations 6
Pressure gradient source: uncorrected Ubar = 0.020188, pressure gradient = 5.89766e-06
GAMG:  Solving for p, Initial residual = 0.00239516, Final residual = 9.83759e-05, No Iterations 3
GAMG:  Solving for p, Initial residual = 0.000331187, Final residual = 8.24613e-06, No Iterations 4
time step continuity errors : sum local = 1.68837e-09, global = 8.97041e-20, cumulative = 8.52028e-17
Pressure gradient source: uncorrected Ubar = 0.020188, pressure gradient = 5.89557e-06
DILUPBiCGStab:  Solving for omega, Initial residual = 4.41932e-07, Final residual = 3.67036e-12, No Iterations 4
DILUPBiCGStab:  Solving for k, Initial residual = 0.000393722, Final residual = 8.5356e-11, No Iterations 5
ExecutionTime = 0.45 s  ClockTime = 1 s

Time = 32

DILUPBiCGStab:  Solving for Ux, Initial residual = 9.30835e-05, Final residual = 5.26815e-12, No Iterations 6
DILUPBiCGStab:  Solving for Uy, Initial residual = 0.000399992, Final residual = 4.3201e-11, No Iterations 6
Pressure gradient source: uncorrected Ubar = 0.020188, pressure gradient = 5.89489e-06
GAMG:  Solving for p, Initial residual = 0.00237682, Final residual = 9.9676e-05, No Iterations 3
GAMG:  Solving for p, Initial residual = 0.000336104, Final residual = 1.26887e-05, No Iterations 4
time step continuity errors : sum local = 2.60312e-09, global = -9e-20, cumulative = 8.51128e-17
Pressure gradient source: uncorrected Ubar = 0.020188, pressure gradient = 5.89234e-06
DILUPBiCGStab:  Solving for omega, Initial residual = 4.34428e-07, Final residual = 3.6113e-12, No Iterations 4
DILUPBiCGStab:  Solving for k, Initial residual = 0.000390303, Final residual = 8.41709e-11, No Iterations 5
ExecutionTime = 0.46 s  ClockTime = 1 s

Time = 33

DILUPBiCGStab:  Solving for Ux, Initial residual = 9.33028e-05, Final residual = 5.59084e-12, No Iterations 6
DILUPBiCGStab:  Solving for Uy, Initial residual = 0.000408046, Final residual = 4.43802e-11, No Iterations 6
Pressure gradient source: uncorrected Ubar = 0.020188, pressure gradient = 5.89153e-06
GAMG:  Solving for p, Initial residual = 0.00235218, Final residual = 0.000103257, No Iterations 3
GAMG:  Solving for p, Initial residual = 0.000343805, Final residual = 1.32087e-05, No Iterations 4
time step continuity errors : sum local = 2.71093e-09, global = -5.46156e-20, cumulative = 8.50582e-17
Pressure gradient source: uncorrected Ubar = 0.020188, pressure gradient = 5.88857e-06
DILUPBiCGStab:  Solving for omega, Initial residual = 4.27118e-07, Final residual = 3.57797e-12, No Iterations 4
DILUPBiCGStab:  Solving for k, Initial residual = 0.000386977, Final residual = 8.34303e-11, No Iterations 5
ExecutionTime = 0.47 s  ClockTime = 1 s

Time = 34

DILUPBiCGStab:  Solving for Ux, Initial residual = 9.35533e-05, Final residual = 5.90414e-12, No Iterations 6
DILUPBiCGStab:  Solving for Uy, Initial residual = 0.000416149, Final residual = 4.54313e-11, No Iterations 6
Pressure gradient source: uncorrected Ubar = 0.020188, pressure gradient = 5.8896e-06
GAMG:  Solving for p, Initial residual = 0.00232949, Final residual = 0.00010364, No Iterations 3
GAMG:  Solving for p, Initial residual = 0.000349151, Final residual = 1.31324e-05, No Iterations 4
time step continuity errors : sum local = 2.70068e-09, global = -1.8539e-20, cumulative = 8.50396e-17
Pressure gradient source: uncorrected Ubar = 0.020188, pressure gradient = 5.88509e-06
DILUPBiCGStab:  Solving for omega, Initial residual = 4.1999e-07, Final residual = 3.58297e-12, No Iterations 4
DILUPBiCGStab:  Solving for k, Initial residual = 0.000383732, Final residual = 8.31961e-11, No Iterations 5
ExecutionTime = 0.49 s  ClockTime = 1 s

Time = 35

DILUPBiCGStab:  Solving for Ux, Initial residual = 9.38121e-05, Final residual = 6.21518e-12, No Iterations 6
DILUPBiCGStab:  Solving for Uy, Initial residual = 0.000424414, Final residual = 4.63853e-11, No Iterations 6
Pressure gradient source: uncorrected Ubar = 0.020188, pressure gradient = 5.88745e-06
GAMG:  Solving for p, Initial residual = 0.00230552, Final residual = 0.00010473, No Iterations 3
GAMG:  Solving for p, Initial residual = 0.000355397, Final residual = 1.33546e-05, No Iterations 4
time step continuity errors : sum local = 2.75016e-09, global = -1.09838e-19, cumulative = 8.49298e-17
Pressure gradient source: uncorrected Ubar = 0.020188, pressure gradient = 5.88209e-06
DILUPBiCGStab:  Solving for omega, Initial residual = 4.13088e-07, Final residual = 3.63442e-12, No Iterations 4
DILUPBiCGStab:  Solving for k, Initial residual = 0.000380581, Final residual = 8.28923e-11, No Iterations 5
ExecutionTime = 0.5 s  ClockTime = 1 s

Time = 36

DILUPBiCGStab:  Solving for Ux, Initial residual = 9.40773e-05, Final residual = 6.55208e-12, No Iterations 6
DILUPBiCGStab:  Solving for Uy, Initial residual = 0.000432708, Final residual = 4.71935e-11, No Iterations 6
Pressure gradient source: uncorrected Ubar = 0.020188, pressure gradient = 5.88496e-06
GAMG:  Solving for p, Initial residual = 0.00227886, Final residual = 0.000105844, No Iterations 3
GAMG:  Solving for p, Initial residual = 0.000361791, Final residual = 1.35397e-05, No Iterations 4
time step continuity errors : sum local = 2.79217e-09, global = -1.32362e-19, cumulative = 8.47974e-17
Pressure gradient source: uncorrected Ubar = 0.020188, pressure gradient = 5.87935e-06
DILUPBiCGStab:  Solving for omega, Initial residual = 4.0648e-07, Final residual = 3.70349e-12, No Iterations 4
DILUPBiCGStab:  Solving for k, Initial residual = 0.000377467, Final residual = 8.27163e-11, No Iterations 5
ExecutionTime = 0.51 s  ClockTime = 1 s

Time = 37

DILUPBiCGStab:  Solving for Ux, Initial residual = 9.43403e-05, Final residual = 6.8984e-12, No Iterations 6
DILUPBiCGStab:  Solving for Uy, Initial residual = 0.000441087, Final residual = 4.80331e-11, No Iterations 6
Pressure gradient source: uncorrected Ubar = 0.020188, pressure gradient = 5.88259e-06
GAMG:  Solving for p, Initial residual = 0.00225972, Final residual = 0.000106672, No Iterations 3
GAMG:  Solving for p, Initial residual = 0.000367588, Final residual = 1.36557e-05, No Iterations 4
time step continuity errors : sum local = 2.81969e-09, global = -7.42175e-20, cumulative = 8.47232e-17
Pressure gradient source: uncorrected Ubar = 0.020188, pressure gradient = 5.8766e-06
DILUPBiCGStab:  Solving for omega, Initial residual = 4.00315e-07, Final residual = 3.90069e-12, No Iterations 4
DILUPBiCGStab:  Solving for k, Initial residual = 0.00037443, Final residual = 8.2641e-11, No Iterations 5
ExecutionTime = 0.53 s  ClockTime = 1 s

Time = 38

DILUPBiCGStab:  Solving for Ux, Initial residual = 9.46207e-05, Final residual = 7.1786e-12, No Iterations 6
DILUPBiCGStab:  Solving for Uy, Initial residual = 0.000449496, Final residual = 4.90429e-11, No Iterations 6
Pressure gradient source: uncorrected Ubar = 0.020188, pressure gradient = 5.88074e-06
GAMG:  Solving for p, Initial residual = 0.0022534, Final residual = 0.00010719, No Iterations 3
GAMG:  Solving for p, Initial residual = 0.000372902, Final residual = 1.37659e-05, No Iterations 4
time step continuity errors : sum local = 2.84593e-09, global = -2.26657e-19, cumulative = 8.44966e-17
Pressure gradient source: uncorrected Ubar = 0.020188, pressure gradient = 5.87402e-06
DILUPBiCGStab:  Solving for omega, Initial residual = 3.94642e-07, Final residual = 4.01802e-12, No Iterations 4
DILUPBiCGStab:  Solving for k, Initial residual = 0.000371498, Final residual = 8.30975e-11, No Iterations 5
ExecutionTime = 0.54 s  ClockTime = 1 s

Time = 39

DILUPBiCGStab:  Solving for Ux, Initial residual = 9.491e-05, Final residual = 7.50929e-12, No Iterations 6
DILUPBiCGStab:  Solving for Uy, Initial residual = 0.000457916, Final residual = 4.98166e-11, No Iterations 6
Pressure gradient source: uncorrected Ubar = 0.020188, pressure gradient = 5.87899e-06
GAMG:  Solving for p, Initial residual = 0.00224484, Final residual = 0.000107359, No Iterations 3
GAMG:  Solving for p, Initial residual = 0.000377519, Final residual = 1.3878e-05, No Iterations 4
time step continuity errors : sum local = 2.8724e-09, global = 9.81618e-20, cumulative = 8.45947e-17
Pressure gradient source: uncorrected Ubar = 0.020188, pressure gradient = 5.87166e-06
DILUPBiCGStab:  Solving for omega, Initial residual = 3.89271e-07, Final residual = 4.16255e-12, No Iterations 4
DILUPBiCGStab:  Solving for k, Initial residual = 0.000368632, Final residual = 8.32792e-11, No Iterations 5
ExecutionTime = 0.55 s  ClockTime = 1 s

Time = 40

DILUPBiCGStab:  Solving for Ux, Initial residual = 9.51976e-05, Final residual = 7.89517e-12, No Iterations 6
DILUPBiCGStab:  Solving for Uy, Initial residual = 0.000466337, Final residual = 5.04603e-11, No Iterations 6
Pressure gradient source: uncorrected Ubar = 0.020188, pressure gradient = 5.87726e-06
GAMG:  Solving for p, Initial residual = 0.00223859, Final residual = 0.000107142, No Iterations 3
GAMG:  Solving for p, Initial residual = 0.000381451, Final residual = 1.39563e-05, No Iterations 4
time step continuity errors : sum local = 2.89188e-09, global = -4.60203e-20, cumulative = 8.45487e-17
Pressure gradient source: uncorrected Ubar = 0.020188, pressure gradient = 5.86948e-06
DILUPBiCGStab:  Solving for omega, Initial residual = 3.84231e-07, Final residual = 4.31052e-12, No Iterations 4
DILUPBiCGStab:  Solving for k, Initial residual = 0.000365855, Final residual = 8.34651e-11, No Iterations 5
ExecutionTime = 0.57 s  ClockTime = 1 s

Time = 41

DILUPBiCGStab:  Solving for Ux, Initial residual = 9.54969e-05, Final residual = 8.36514e-12, No Iterations 6
DILUPBiCGStab:  Solving for Uy, Initial residual = 0.000474833, Final residual = 5.10767e-11, No Iterations 6
Pressure gradient source: uncorrected Ubar = 0.020188, pressure gradient = 5.87566e-06
GAMG:  Solving for p, Initial residual = 0.00223449, Final residual = 0.000107028, No Iterations 3
GAMG:  Solving for p, Initial residual = 0.000384678, Final residual = 1.28424e-05, No Iterations 4
time step continuity errors : sum local = 2.66166e-09, global = -1.07971e-19, cumulative = 8.44407e-17
Pressure gradient source: uncorrected Ubar = 0.020188, pressure gradient = 5.86729e-06
DILUPBiCGStab:  Solving for omega, Initial residual = 3.79476e-07, Final residual = 4.44016e-12, No Iterations 4
DILUPBiCGStab:  Solving for k, Initial residual = 0.000363162, Final residual = 8.39805e-11, No Iterations 5
ExecutionTime = 0.58 s  ClockTime = 1 s

Time = 42

DILUPBiCGStab:  Solving for Ux, Initial residual = 9.58171e-05, Final residual = 8.82938e-12, No Iterations 6
DILUPBiCGStab:  Solving for Uy, Initial residual = 0.000483363, Final residual = 5.16979e-11, No Iterations 6
Pressure gradient source: uncorrected Ubar = 0.020188, pressure gradient = 5.8744e-06
GAMG:  Solving for p, Initial residual = 0.00223492, Final residual = 0.000105704, No Iterations 3
GAMG:  Solving for p, Initial residual = 0.000387015, Final residual = 1.23023e-05, No Iterations 4
time step continuity errors : sum local = 2.53891e-09, global = 2.70915e-19, cumulative = 8.47116e-17
Pressure gradient source: uncorrected Ubar = 0.020188, pressure gradient = 5.86558e-06
DILUPBiCGStab:  Solving for omega, Initial residual = 3.74957e-07, Final residual = 4.53665e-12, No Iterations 4
DILUPBiCGStab:  Solving for k, Initial residual = 0.000360561, Final residual = 8.43467e-11, No Iterations 5
ExecutionTime = 0.59 s  ClockTime = 1 s

Time = 43

DILUPBiCGStab:  Solving for Ux, Initial residual = 9.61307e-05, Final residual = 9.19833e-12, No Iterations 6
DILUPBiCGStab:  Solving for Uy, Initial residual = 0.000491931, Final residual = 5.21552e-11, No Iterations 6
Pressure gradient source: uncorrected Ubar = 0.020188, pressure gradient = 5.87274e-06
GAMG:  Solving for p, Initial residual = 0.00222718, Final residual = 0.00010635, No Iterations 3
GAMG:  Solving for p, Initial residual = 0.000389323, Final residual = 1.24386e-05, No Iterations 4
time step continuity errors : sum local = 2.56793e-09, global = -4.37588e-20, cumulative = 8.46679e-17
Pressure gradient source: uncorrected Ubar = 0.020188, pressure gradient = 5.86388e-06
DILUPBiCGStab:  Solving for omega, Initial residual = 3.70599e-07, Final residual = 7.63926e-11, No Iterations 3
DILUPBiCGStab:  Solving for k, Initial residual = 0.000358031, Final residual = 8.44655e-11, No Iterations 5
ExecutionTime = 0.61 s  ClockTime = 1 s

Time = 44

DILUPBiCGStab:  Solving for Ux, Initial residual = 9.64504e-05, Final residual = 9.54229e-12, No Iterations 6
DILUPBiCGStab:  Solving for Uy, Initial residual = 0.000500521, Final residual = 5.22608e-11, No Iterations 6
Pressure gradient source: uncorrected Ubar = 0.020188, pressure gradient = 5.87153e-06
GAMG:  Solving for p, Initial residual = 0.00222679, Final residual = 0.000106681, No Iterations 3
GAMG:  Solving for p, Initial residual = 0.00039062, Final residual = 1.25242e-05, No Iterations 4
time step continuity errors : sum local = 2.58621e-09, global = 2.55198e-19, cumulative = 8.49231e-17
Pressure gradient source: uncorrected Ubar = 0.020188, pressure gradient = 5.8622e-06
DILUPBiCGStab:  Solving for omega, Initial residual = 3.66406e-07, Final residual = 5.36209e-11, No Iterations 3
DILUPBiCGStab:  Solving for k, Initial residual = 0.00035555, Final residual = 8.45163e-11, No Iterations 5
ExecutionTime = 0.62 s  ClockTime = 1 s

Time = 45

DILUPBiCGStab:  Solving for Ux, Initial residual = 9.6772e-05, Final residual = 9.93153e-12, No Iterations 6
DILUPBiCGStab:  Solving for Uy, Initial residual = 0.000509072, Final residual = 5.24723e-11, No Iterations 6
Pressure gradient source: uncorrected Ubar = 0.020188, pressure gradient = 5.87061e-06
GAMG:  Solving for p, Initial residual = 0.00222456, Final residual = 0.000106556, No Iterations 3
GAMG:  Solving for p, Initial residual = 0.000392029, Final residual = 1.25415e-05, No Iterations 4
time step continuity errors : sum local = 2.58868e-09, global = 6.4958e-20, cumulative = 8.4988e-17
Pressure gradient source: uncorrected Ubar = 0.020188, pressure gradient = 5.86068e-06
DILUPBiCGStab:  Solving for omega, Initial residual = 3.62416e-07, Final residual = 3.96088e-11, No Iterations 3
DILUPBiCGStab:  Solving for k, Initial residual = 0.000353134, Final residual = 8.44632e-11, No Iterations 5
ExecutionTime = 0.63 s  ClockTime = 1 s

Time = 46

DILUPBiCGStab:  Solving for Ux, Initial residual = 9.71007e-05, Final residual = 1.05293e-11, No Iterations 6
DILUPBiCGStab:  Solving for Uy, Initial residual = 0.000517649, Final residual = 5.26887e-11, No Iterations 6
Pressure gradient source: uncorrected Ubar = 0.020188, pressure gradient = 5.86968e-06
GAMG:  Solving for p, Initial residual = 0.00222464, Final residual = 0.000106112, No Iterations 3
GAMG:  Solving for p, Initial residual = 0.000393809, Final residual = 1.16058e-05, No Iterations 4
time step continuity errors : sum local = 2.45399e-09, global = 9.71592e-20, cumulative = 8.50852e-17
Pressure gradient source: uncorrected Ubar = 0.020188, pressure gradient = 5.85916e-06
DILUPBiCGStab:  Solving for omega, Initial residual = 3.58641e-07, Final residual = 2.96364e-11, No Iterations 3
DILUPBiCGStab:  Solving for k, Initial residual = 0.000350797, Final residual = 8.46733e-11, No Iterations 5
ExecutionTime = 0.65 s  ClockTime = 1 s

Time = 47

DILUPBiCGStab:  Solving for Ux, Initial residual = 9.74393e-05, Final residual = 1.10265e-11, No Iterations 6
DILUPBiCGStab:  Solving for Uy, Initial residual = 0.000526224, Final residual = 5.25778e-11, No Iterations 6
Pressure gradient source: uncorrected Ubar = 0.020188, pressure gradient = 5.86897e-06
GAMG:  Solving for p, Initial residual = 0.00222848, Final residual = 0.000105184, No Iterations 3
GAMG:  Solving for p, Initial residual = 0.000397241, Final residual = 1.33299e-05, No Iterations 4
time step continuity errors : sum local = 2.77128e-09, global = -8.91074e-20, cumulative = 8.49961e-17
Pressure gradient source: uncorrected Ubar = 0.020188, pressure gradient = 5.85834e-06
DILUPBiCGStab:  Solving for omega, Initial residual = 3.55051e-07, Final residual = 9.46263e-11, No Iterations 3
DILUPBiCGStab:  Solving for k, Initial residual = 0.000348519, Final residual = 8.50666e-11, No Iterations 5
ExecutionTime = 0.66 s  ClockTime = 1 s

Time = 48

DILUPBiCGStab:  Solving for Ux, Initial residual = 9.77809e-05, Final residual = 9.94028e-11, No Iterations 5
DILUPBiCGStab:  Solving for Uy, Initial residual = 0.000534791, Final residual = 5.22251e-11, No Iterations 6
Pressure gradient source: uncorrected Ubar = 0.020188, pressure gradient = 5.86748e-06
GAMG:  Solving for p, Initial residual = 0.00222712, Final residual = 0.000105299, No Iterations 3
GAMG:  Solving for p, Initial residual = 0.000400941, Final residual = 1.53564e-05, No Iterations 4
time step continuity errors : sum local = 3.23028e-09, global = 3.91178e-19, cumulative = 8.53873e-17
Pressure gradient source: uncorrected Ubar = 0.020188, pressure gradient = 5.85734e-06
DILUPBiCGStab:  Solving for omega, Initial residual = 3.51646e-07, Final residual = 8.83185e-11, No Iterations 3
DILUPBiCGStab:  Solving for k, Initial residual = 0.000346278, Final residual = 8.45e-11, No Iterations 5
ExecutionTime = 0.67 s  ClockTime = 1 s

Time = 49

DILUPBiCGStab:  Solving for Ux, Initial residual = 9.81249e-05, Final residual = 8.72334e-11, No Iterations 5
DILUPBiCGStab:  Solving for Uy, Initial residual = 0.000543307, Final residual = 5.16955e-11, No Iterations 6
Pressure gradient source: uncorrected Ubar = 0.020188, pressure gradient = 5.86678e-06
GAMG:  Solving for p, Initial residual = 0.0022296, Final residual = 0.000105869, No Iterations 3
GAMG:  Solving for p, Initial residual = 0.000404065, Final residual = 1.17147e-05, No Iterations 4
time step continuity errors : sum local = 2.45591e-09, global = -9.77133e-21, cumulative = 8.53775e-17
Pressure gradient source: uncorrected Ubar = 0.020188, pressure gradient = 5.85551e-06
DILUPBiCGStab:  Solving for omega, Initial residual = 3.48429e-07, Final residual = 8.09158e-11, No Iterations 3
DILUPBiCGStab:  Solving for k, Initial residual = 0.000344085, Final residual = 8.28601e-11, No Iterations 5
ExecutionTime = 0.69 s  ClockTime = 1 s

Time = 50

DILUPBiCGStab:  Solving for Ux, Initial residual = 9.84819e-05, Final residual = 8.1411e-11, No Iterations 5
DILUPBiCGStab:  Solving for Uy, Initial residual = 0.000551801, Final residual = 5.11189e-11, No Iterations 6
Pressure gradient source: uncorrected Ubar = 0.020188, pressure gradient = 5.86742e-06
GAMG:  Solving for p, Initial residual = 0.00223341, Final residual = 0.000102111, No Iterations 3
GAMG:  Solving for p, Initial residual = 0.00040352, Final residual = 1.29756e-05, No Iterations 4
time step continuity errors : sum local = 2.69574e-09, global = -1.50123e-19, cumulative = 8.52274e-17
Pressure gradient source: uncorrected Ubar = 0.020188, pressure gradient = 5.85506e-06
DILUPBiCGStab:  Solving for omega, Initial residual = 3.45383e-07, Final residual = 7.49938e-11, No Iterations 3
DILUPBiCGStab:  Solving for k, Initial residual = 0.000341918, Final residual = 8.18318e-11, No Iterations 5
ExecutionTime = 0.7 s  ClockTime = 1 s

Time = 51

DILUPBiCGStab:  Solving for Ux, Initial residual = 9.88208e-05, Final residual = 7.96932e-11, No Iterations 5
DILUPBiCGStab:  Solving for Uy, Initial residual = 0.000560276, Final residual = 5.06048e-11, No Iterations 6
Pressure gradient source: uncorrected Ubar = 0.020188, pressure gradient = 5.86589e-06
GAMG:  Solving for p, Initial residual = 0.00222607, Final residual = 0.000102493, No Iterations 3
GAMG:  Solving for p, Initial residual = 0.000405171, Final residual = 1.16417e-05, No Iterations 4
time step continuity errors : sum local = 2.45522e-09, global = -1.9982e-19, cumulative = 8.50275e-17
Pressure gradient source: uncorrected Ubar = 0.020188, pressure gradient = 5.85427e-06
DILUPBiCGStab:  Solving for omega, Initial residual = 3.42505e-07, Final residual = 7.02973e-11, No Iterations 3
DILUPBiCGStab:  Solving for k, Initial residual = 0.000339825, Final residual = 8.02618e-11, No Iterations 5
ExecutionTime = 0.71 s  ClockTime = 1 s

Time = 52

DILUPBiCGStab:  Solving for Ux, Initial residual = 9.91775e-05, Final residual = 7.77382e-11, No Iterations 5
DILUPBiCGStab:  Solving for Uy, Initial residual = 0.000568678, Final residual = 5.00597e-11, No Iterations 6
Pressure gradient source: uncorrected Ubar = 0.020188, pressure gradient = 5.86549e-06
GAMG:  Solving for p, Initial residual = 0.0022267, Final residual = 0.000101348, No Iterations 3
GAMG:  Solving for p, Initial residual = 0.000404944, Final residual = 1.30323e-05, No Iterations 4
time step continuity errors : sum local = 2.71245e-09, global = 1.49353e-19, cumulative = 8.51769e-17
Pressure gradient source: uncorrected Ubar = 0.020188, pressure gradient = 5.85377e-06
DILUPBiCGStab:  Solving for omega, Initial residual = 3.39731e-07, Final residual = 6.64662e-11, No Iterations 3
DILUPBiCGStab:  Solving for k, Initial residual = 0.00033775, Final residual = 7.88553e-11, No Iterations 5
ExecutionTime = 0.72 s  ClockTime = 1 s

Time = 53

DILUPBiCGStab:  Solving for Ux, Initial residual = 9.95421e-05, Final residual = 7.25869e-11, No Iterations 5
DILUPBiCGStab:  Solving for Uy, Initial residual = 0.000577107, Final residual = 4.92435e-11, No Iterations 6
Pressure gradient source: uncorrected Ubar = 0.020188, pressure gradient = 5.86492e-06
GAMG:  Solving for p, Initial residual = 0.00221949, Final residual = 0.00010079, No Iterations 3
GAMG:  Solving for p, Initial residual = 0.000404867, Final residual = 1.15537e-05, No Iterations 4
time step continuity errors : sum local = 2.43207e-09, global = -1.21953e-19, cumulative = 8.50549e-17
Pressure gradient source: uncorrected Ubar = 0.020188, pressure gradient = 5.85278e-06
DILUPBiCGStab:  Solving for omega, Initial residual = 3.37089e-07, Final residual = 6.38648e-11, No Iterations 3
DILUPBiCGStab:  Solving for k, Initial residual = 0.000335755, Final residual = 7.6765e-11, No Iterations 5
ExecutionTime = 0.74 s  ClockTime = 1 s

Time = 54

DILUPBiCGStab:  Solving for Ux, Initial residual = 9.99155e-05, Final residual = 6.64823e-11, No Iterations 5
DILUPBiCGStab:  Solving for Uy, Initial residual = 0.000585429, Final residual = 4.82681e-11, No Iterations 6
Pressure gradient source: uncorrected Ubar = 0.020188, pressure gradient = 5.86534e-06
GAMG:  Solving for p, Initial residual = 0.00222436, Final residual = 9.99259e-05, No Iterations 3
GAMG:  Solving for p, Initial residual = 0.000403824, Final residual = 1.27559e-05, No Iterations 4
time step continuity errors : sum local = 2.65522e-09, global = 2.40283e-19, cumulative = 8.52952e-17
Pressure gradient source: uncorrected Ubar = 0.020188, pressure gradient = 5.85242e-06
DILUPBiCGStab:  Solving for omega, Initial residual = 3.34535e-07, Final residual = 6.18307e-11, No Iterations 3
DILUPBiCGStab:  Solving for k, Initial residual = 0.000333778, Final residual = 7.49275e-11, No Iterations 5
ExecutionTime = 0.75 s  ClockTime = 1 s

Time = 55

DILUPBiCGStab:  Solving for Ux, Initial residual = 0.000100285, Final residual = 6.00146e-11, No Iterations 5
DILUPBiCGStab:  Solving for Uy, Initial residual = 0.000593672, Final residual = 4.68817e-11, No Iterations 6
Pressure gradient source: uncorrected Ubar = 0.020188, pressure gradient = 5.86482e-06
GAMG:  Solving for p, Initial residual = 0.002222, Final residual = 9.96653e-05, No Iterations 3
GAMG:  Solving for p, Initial residual = 0.0004033, Final residual = 1.21594e-05, No Iterations 4
time step continuity errors : sum local = 2.51572e-09, global = -7.17555e-20, cumulative = 8.52235e-17
Pressure gradient source: uncorrected Ubar = 0.020188, pressure gradient = 5.85194e-06
DILUPBiCGStab:  Solving for omega, Initial residual = 3.32141e-07, Final residual = 6.01101e-11, No Iterations 3
DILUPBiCGStab:  Solving for k, Initial residual = 0.000331853, Final residual = 7.23809e-11, No Iterations 5
ExecutionTime = 0.76 s  ClockTime = 1 s

Time = 56

DILUPBiCGStab:  Solving for Ux, Initial residual = 0.000100657, Final residual = 5.34791e-11, No Iterations 5
DILUPBiCGStab:  Solving for Uy, Initial residual = 0.00060189, Final residual = 4.50957e-11, No Iterations 6
Pressure gradient source: uncorrected Ubar = 0.020188, pressure gradient = 5.86483e-06
GAMG:  Solving for p, Initial residual = 0.00222979, Final residual = 9.8956e-05, No Iterations 3
GAMG:  Solving for p, Initial residual = 0.000402055, Final residual = 1.20727e-05, No Iterations 4
time step continuity errors : sum local = 2.49938e-09, global = 1.9994e-20, cumulative = 8.52435e-17
Pressure gradient source: uncorrected Ubar = 0.020188, pressure gradient = 5.85146e-06
DILUPBiCGStab:  Solving for omega, Initial residual = 3.29888e-07, Final residual = 5.91532e-11, No Iterations 3
DILUPBiCGStab:  Solving for k, Initial residual = 0.000330005, Final residual = 6.97025e-11, No Iterations 5
ExecutionTime = 0.78 s  ClockTime = 1 s

Time = 57

DILUPBiCGStab:  Solving for Ux, Initial residual = 0.00010103, Final residual = 4.81469e-11, No Iterations 5
DILUPBiCGStab:  Solving for Uy, Initial residual = 0.000610149, Final residual = 4.27515e-11, No Iterations 6
Pressure gradient source: uncorrected Ubar = 0.020188, pressure gradient = 5.86502e-06
GAMG:  Solving for p, Initial residual = 0.00223946, Final residual = 9.89935e-05, No Iterations 3
GAMG:  Solving for p, Initial residual = 0.000401491, Final residual = 1.21678e-05, No Iterations 4
time step continuity errors : sum local = 2.52256e-09, global = -2.74514e-19, cumulative = 8.4969e-17
Pressure gradient source: uncorrected Ubar = 0.020188, pressure gradient = 5.85114e-06
DILUPBiCGStab:  Solving for omega, Initial residual = 3.27789e-07, Final residual = 5.87993e-11, No Iterations 3
DILUPBiCGStab:  Solving for k, Initial residual = 0.000328193, Final residual = 6.67614e-11, No Iterations 5
ExecutionTime = 0.79 s  ClockTime = 1 s

Time = 58

DILUPBiCGStab:  Solving for Ux, Initial residual = 0.000101401, Final residual = 4.34752e-11, No Iterations 5
DILUPBiCGStab:  Solving for Uy, Initial residual = 0.00061827, Final residual = 3.99504e-11, No Iterations 6
Pressure gradient source: uncorrected Ubar = 0.020188, pressure gradient = 5.86509e-06
GAMG:  Solving for p, Initial residual = 0.0022435, Final residual = 9.90589e-05, No Iterations 3
GAMG:  Solving for p, Initial residual = 0.000400128, Final residual = 1.42489e-05, No Iterations 4
time step continuity errors : sum local = 2.98835e-09, global = -5.68064e-21, cumulative = 8.49633e-17
Pressure gradient source: uncorrected Ubar = 0.020188, pressure gradient = 5.85098e-06
DILUPBiCGStab:  Solving for omega, Initial residual = 3.25796e-07, Final residual = 5.90792e-11, No Iterations 3
DILUPBiCGStab:  Solving for k, Initial residual = 0.000326441, Final residual = 6.34813e-11, No Iterations 5
ExecutionTime = 0.8 s  ClockTime = 1 s

Time = 59

DILUPBiCGStab:  Solving for Ux, Initial residual = 0.000101773, Final residual = 3.94841e-11, No Iterations 5
DILUPBiCGStab:  Solving for Uy, Initial residual = 0.000626274, Final residual = 3.63336e-11, No Iterations 6
Pressure gradient source: uncorrected Ubar = 0.020188, pressure gradient = 5.86513e-06
GAMG:  Solving for p, Initial residual = 0.00224767, Final residual = 0.00010009, No Iterations 3
GAMG:  Solving for p, Initial residual = 0.000399911, Final residual = 1.42747e-05, No Iterations 4
time step continuity errors : sum local = 2.99309e-09, global = 1.70677e-20, cumulative = 8.49803e-17
Pressure gradient source: uncorrected Ubar = 0.020188, pressure gradient = 5.85075e-06
DILUPBiCGStab:  Solving for omega, Initial residual = 3.24055e-07, Final residual = 6.01414e-11, No Iterations 3
DILUPBiCGStab:  Solving for k, Initial residual = 0.000324707, Final residual = 6.00417e-11, No Iterations 5
ExecutionTime = 0.82 s  ClockTime = 1 s

Time = 60

DILUPBiCGStab:  Solving for Ux, Initial residual = 0.000102155, Final residual = 3.64771e-11, No Iterations 5
DILUPBiCGStab:  Solving for Uy, Initial residual = 0.000634166, Final residual = 3.45714e-11, No Iterations 6
Pressure gradient source: uncorrected Ubar = 0.020188, pressure gradient = 5.8655e-06
GAMG:  Solving for p, Initial residual = 0.00224425, Final residual = 9.95339e-05, No Iterations 3
GAMG:  Solving for p, Initial residual = 0.000398633, Final residual = 1.41524e-05, No Iterations 4
time step continuity errors : sum local = 2.96541e-09, global = 1.69145e-19, cumulative = 8.51495e-17
Pressure gradient source: uncorrected Ubar = 0.020188, pressure gradient = 5.85058e-06
DILUPBiCGStab:  Solving for omega, Initial residual = 3.22452e-07, Final residual = 6.21062e-11, No Iterations 3
DILUPBiCGStab:  Solving for k, Initial residual = 0.00032303, Final residual = 5.67385e-11, No Iterations 5
ExecutionTime = 0.83 s  ClockTime = 1 s

Time = 61

DILUPBiCGStab:  Solving for Ux, Initial residual = 0.00010253, Final residual = 3.40099e-11, No Iterations 5
DILUPBiCGStab:  Solving for Uy, Initial residual = 0.000642034, Final residual = 3.60418e-11, No Iterations 6
Pressure gradient source: uncorrected Ubar = 0.020188, pressure gradient = 5.86588e-06
GAMG:  Solving for p, Initial residual = 0.00224236, Final residual = 9.95896e-05, No Iterations 3
GAMG:  Solving for p, Initial residual = 0.000398034, Final residual = 1.40699e-05, No Iterations 4
time step continuity errors : sum local = 2.94644e-09, global = 1.70334e-19, cumulative = 8.53198e-17
Pressure gradient source: uncorrected Ubar = 0.020188, pressure gradient = 5.85055e-06
DILUPBiCGStab:  Solving for omega, Initial residual = 3.20942e-07, Final residual = 6.51326e-11, No Iterations 3
DILUPBiCGStab:  Solving for k, Initial residual = 0.00032141, Final residual = 5.36333e-11, No Iterations 5
ExecutionTime = 0.84 s  ClockTime = 1 s

Time = 62

DILUPBiCGStab:  Solving for Ux, Initial residual = 0.000102902, Final residual = 3.17343e-11, No Iterations 5
DILUPBiCGStab:  Solving for Uy, Initial residual = 0.000649698, Final residual = 3.9605e-11, No Iterations 6
Pressure gradient source: uncorrected Ubar = 0.020188, pressure gradient = 5.8662e-06
GAMG:  Solving for p, Initial residual = 0.00224179, Final residual = 9.96735e-05, No Iterations 3
GAMG:  Solving for p, Initial residual = 0.000397573, Final residual = 1.21682e-05, No Iterations 4
time step continuity errors : sum local = 2.51325e-09, global = 8.17233e-20, cumulative = 8.54015e-17
Pressure gradient source: uncorrected Ubar = 0.020188, pressure gradient = 5.85064e-06
DILUPBiCGStab:  Solving for omega, Initial residual = 3.19494e-07, Final residual = 6.94192e-11, No Iterations 3
DILUPBiCGStab:  Solving for k, Initial residual = 0.000319815, Final residual = 5.07865e-11, No Iterations 5
ExecutionTime = 0.86 s  ClockTime = 1 s

Time = 63

DILUPBiCGStab:  Solving for Ux, Initial residual = 0.000103272, Final residual = 2.96393e-11, No Iterations 5
DILUPBiCGStab:  Solving for Uy, Initial residual = 0.000657367, Final residual = 4.37482e-11, No Iterations 6
Pressure gradient source: uncorrected Ubar = 0.020188, pressure gradient = 5.86647e-06
GAMG:  Solving for p, Initial residual = 0.00224294, Final residual = 9.96904e-05, No Iterations 3
GAMG:  Solving for p, Initial residual = 0.000395975, Final residual = 1.20765e-05, No Iterations 4
time step continuity errors : sum local = 2.49216e-09, global = 2.23654e-20, cumulative = 8.54239e-17
Pressure gradient source: uncorrected Ubar = 0.020188, pressure gradient = 5.85061e-06
DILUPBiCGStab:  Solving for omega, Initial residual = 3.18094e-07, Final residual = 7.53792e-11, No Iterations 3
DILUPBiCGStab:  Solving for k, Initial residual = 0.000318259, Final residual = 4.88892e-11, No Iterations 5
ExecutionTime = 0.87 s  ClockTime = 1 s

Time = 64

DILUPBiCGStab:  Solving for Ux, Initial residual = 0.000103641, Final residual = 2.81306e-11, No Iterations 5
DILUPBiCGStab:  Solving for Uy, Initial residual = 0.000665031, Final residual = 4.70764e-11, No Iterations 6
Pressure gradient source: uncorrected Ubar = 0.020188, pressure gradient = 5.86712e-06
GAMG:  Solving for p, Initial residual = 0.00224996, Final residual = 9.99566e-05, No Iterations 3
GAMG:  Solving for p, Initial residual = 0.000394451, Final residual = 1.15579e-05, No Iterations 4
time step continuity errors : sum local = 2.36077e-09, global = 2.44914e-19, cumulative = 8.56688e-17
Pressure gradient source: uncorrected Ubar = 0.020188, pressure gradient = 5.85076e-06
DILUPBiCGStab:  Solving for omega, Initial residual = 3.1673e-07, Final residual = 8.35438e-11, No Iterations 3
DILUPBiCGStab:  Solving for k, Initial residual = 0.000316747, Final residual = 4.86414e-11, No Iterations 5
ExecutionTime = 0.89 s  ClockTime = 1 s

Time = 65

DILUPBiCGStab:  Solving for Ux, Initial residual = 0.000104014, Final residual = 2.7014e-11, No Iterations 5
DILUPBiCGStab:  Solving for Uy, Initial residual = 0.000672471, Final residual = 4.96226e-11, No Iterations 6
Pressure gradient source: uncorrected Ubar = 0.020188, pressure gradient = 5.86755e-06
GAMG:  Solving for p, Initial residual = 0.00224791, Final residual = 9.93563e-05, No Iterations 3
GAMG:  Solving for p, Initial residual = 0.000392661, Final residual = 1.16217e-05, No Iterations 4
time step continuity errors : sum local = 2.36649e-09, global = -6.97751e-20, cumulative = 8.55991e-17
Pressure gradient source: uncorrected Ubar = 0.020188, pressure gradient = 5.8508e-06
DILUPBiCGStab:  Solving for omega, Initial residual = 3.15468e-07, Final residual = 9.41723e-11, No Iterations 3
DILUPBiCGStab:  Solving for k, Initial residual = 0.000315289, Final residual = 4.98863e-11, No Iterations 5
ExecutionTime = 0.91 s  ClockTime = 1 s

Time = 66

DILUPBiCGStab:  Solving for Ux, Initial residual = 0.000104381, Final residual = 2.62177e-11, No Iterations 5
DILUPBiCGStab:  Solving for Uy, Initial residual = 0.000679794, Final residual = 5.1437e-11, No Iterations 6
Pressure gradient source: uncorrected Ubar = 0.020188, pressure gradient = 5.86828e-06
GAMG:  Solving for p, Initial residual = 0.00224587, Final residual = 9.98279e-05, No Iterations 3
GAMG:  Solving for p, Initial residual = 0.000391334, Final residual = 1.15927e-05, No Iterations 4
time step continuity errors : sum local = 2.35815e-09, global = -1.13321e-19, cumulative = 8.54857e-17
Pressure gradient source: uncorrected Ubar = 0.020188, pressure gradient = 5.85096e-06
DILUPBiCGStab:  Solving for omega, Initial residual = 3.14249e-07, Final residual = 3.54789e-11, No Iterations 3
DILUPBiCGStab:  Solving for k, Initial residual = 0.000313875, Final residual = 5.25116e-11, No Iterations 5
ExecutionTime = 0.92 s  ClockTime = 1 s

Time = 67

DILUPBiCGStab:  Solving for Ux, Initial residual = 0.000104746, Final residual = 2.56123e-11, No Iterations 5
DILUPBiCGStab:  Solving for Uy, Initial residual = 0.000687064, Final residual = 5.27396e-11, No Iterations 6
Pressure gradient source: uncorrected Ubar = 0.020188, pressure gradient = 5.86888e-06
GAMG:  Solving for p, Initial residual = 0.00224343, Final residual = 0.000100157, No Iterations 3
GAMG:  Solving for p, Initial residual = 0.000390599, Final residual = 1.15505e-05, No Iterations 4
time step continuity errors : sum local = 2.34601e-09, global = 1.29955e-19, cumulative = 8.56157e-17
Pressure gradient source: uncorrected Ubar = 0.020188, pressure gradient = 5.8512e-06
DILUPBiCGStab:  Solving for omega, Initial residual = 3.13075e-07, Final residual = 3.61675e-11, No Iterations 3
DILUPBiCGStab:  Solving for k, Initial residual = 0.000312526, Final residual = 5.63628e-11, No Iterations 5
ExecutionTime = 0.94 s  ClockTime = 1 s

Time = 68

DILUPBiCGStab:  Solving for Ux, Initial residual = 0.000105105, Final residual = 2.51851e-11, No Iterations 5
DILUPBiCGStab:  Solving for Uy, Initial residual = 0.00069413, Final residual = 5.36704e-11, No Iterations 6
Pressure gradient source: uncorrected Ubar = 0.020188, pressure gradient = 5.86945e-06
GAMG:  Solving for p, Initial residual = 0.00224583, Final residual = 0.000100567, No Iterations 3
GAMG:  Solving for p, Initial residual = 0.000389166, Final residual = 1.1502e-05, No Iterations 4
time step continuity errors : sum local = 2.33466e-09, global = 1.3161e-20, cumulative = 8.56288e-17
Pressure gradient source: uncorrected Ubar = 0.020188, pressure gradient = 5.85146e-06
DILUPBiCGStab:  Solving for omega, Initial residual = 3.12042e-07, Final residual = 4.00159e-11, No Iterations 3
DILUPBiCGStab:  Solving for k, Initial residual = 0.0003112, Final residual = 6.12285e-11, No Iterations 5
ExecutionTime = 0.95 s  ClockTime = 1 s

Time = 69

DILUPBiCGStab:  Solving for Ux, Initial residual = 0.000105458, Final residual = 2.4904e-11, No Iterations 5
DILUPBiCGStab:  Solving for Uy, Initial residual = 0.00070115, Final residual = 5.44057e-11, No Iterations 6
Pressure gradient source: uncorrected Ubar = 0.020188, pressure gradient = 5.87008e-06
GAMG:  Solving for p, Initial residual = 0.00223965, Final residual = 0.000100982, No Iterations 3
GAMG:  Solving for p, Initial residual = 0.00038766, Final residual = 1.14272e-05, No Iterations 4
time step continuity errors : sum local = 2.32599e-09, global = 3.65681e-20, cumulative = 8.56654e-17
Pressure gradient source: uncorrected Ubar = 0.020188, pressure gradient = 5.85173e-06
DILUPBiCGStab:  Solving for omega, Initial residual = 3.10933e-07, Final residual = 4.50724e-11, No Iterations 3
DILUPBiCGStab:  Solving for k, Initial residual = 0.000309941, Final residual = 6.71138e-11, No Iterations 5
ExecutionTime = 0.96 s  ClockTime = 1 s

Time = 70

DILUPBiCGStab:  Solving for Ux, Initial residual = 0.00010582, Final residual = 2.48294e-11, No Iterations 5
DILUPBiCGStab:  Solving for Uy, Initial residual = 0.000708141, Final residual = 5.50966e-11, No Iterations 6
Pressure gradient source: uncorrected Ubar = 0.020188, pressure gradient = 5.8708e-06
GAMG:  Solving for p, Initial residual = 0.00223858, Final residual = 0.000101412, No Iterations 3
GAMG:  Solving for p, Initial residual = 0.000386484, Final residual = 1.13587e-05, No Iterations 4
time step continuity errors : sum local = 2.31955e-09, global = -1.00697e-19, cumulative = 8.55647e-17
Pressure gradient source: uncorrected Ubar = 0.020188, pressure gradient = 5.85203e-06
DILUPBiCGStab:  Solving for omega, Initial residual = 3.09907e-07, Final residual = 5.0297e-11, No Iterations 3
DILUPBiCGStab:  Solving for k, Initial residual = 0.000308723, Final residual = 7.17149e-11, No Iterations 5
ExecutionTime = 0.97 s  ClockTime = 1 s

Time = 71

DILUPBiCGStab:  Solving for Ux, Initial residual = 0.000106175, Final residual = 2.48523e-11, No Iterations 5
DILUPBiCGStab:  Solving for Uy, Initial residual = 0.000714976, Final residual = 5.58154e-11, No Iterations 6
Pressure gradient source: uncorrected Ubar = 0.020188, pressure gradient = 5.87151e-06
GAMG:  Solving for p, Initial residual = 0.00223495, Final residual = 0.000101917, No Iterations 3
GAMG:  Solving for p, Initial residual = 0.000384909, Final residual = 1.12994e-05, No Iterations 4
time step continuity errors : sum local = 2.31551e-09, global = -1.58676e-19, cumulative = 8.5406e-17
Pressure gradient source: uncorrected Ubar = 0.020188, pressure gradient = 5.85238e-06
DILUPBiCGStab:  Solving for omega, Initial residual = 3.08899e-07, Final residual = 5.58495e-11, No Iterations 3
DILUPBiCGStab:  Solving for k, Initial residual = 0.000307526, Final residual = 7.66358e-11, No Iterations 5
ExecutionTime = 0.99 s  ClockTime = 1 s

Time = 72

DILUPBiCGStab:  Solving for Ux, Initial residual = 0.000106526, Final residual = 2.49547e-11, No Iterations 5
DILUPBiCGStab:  Solving for Uy, Initial residual = 0.00072178, Final residual = 5.66479e-11, No Iterations 6
Pressure gradient source: uncorrected Ubar = 0.020188, pressure gradient = 5.87223e-06
GAMG:  Solving for p, Initial residual = 0.00223332, Final residual = 0.000102474, No Iterations 3
GAMG:  Solving for p, Initial residual = 0.000383106, Final residual = 1.12588e-05, No Iterations 4
time step continuity errors : sum local = 2.31516e-09, global = 1.67255e-19, cumulative = 8.55733e-17
Pressure gradient source: uncorrected Ubar = 0.020188, pressure gradient = 5.85275e-06
DILUPBiCGStab:  Solving for omega, Initial residual = 3.07943e-07, Final residual = 6.13398e-11, No Iterations 3
DILUPBiCGStab:  Solving for k, Initial residual = 0.000306364, Final residual = 8.31769e-11, No Iterations 5
ExecutionTime = 1 s  ClockTime = 1 s

Time = 73

DILUPBiCGStab:  Solving for Ux, Initial residual = 0.000106876, Final residual = 2.51746e-11, No Iterations 5
DILUPBiCGStab:  Solving for Uy, Initial residual = 0.00072842, Final residual = 5.76039e-11, No Iterations 6
Pressure gradient source: uncorrected Ubar = 0.020188, pressure gradient = 5.87297e-06
GAMG:  Solving for p, Initial residual = 0.00223709, Final residual = 0.000103049, No Iterations 3
GAMG:  Solving for p, Initial residual = 0.000381098, Final residual = 1.12335e-05, No Iterations 4
time step continuity errors : sum local = 2.31854e-09, global = -1.42029e-20, cumulative = 8.55591e-17
Pressure gradient source: uncorrected Ubar = 0.020188, pressure gradient = 5.85315e-06
DILUPBiCGStab:  Solving for omega, Initial residual = 3.06964e-07, Final residual = 6.58147e-11, No Iterations 3
DILUPBiCGStab:  Solving for k, Initial residual = 0.000305239, Final residual = 9.07183e-11, No Iterations 5
ExecutionTime = 1.02 s  ClockTime = 1 s

Time = 74

DILUPBiCGStab:  Solving for Ux, Initial residual = 0.000107229, Final residual = 2.54461e-11, No Iterations 5
DILUPBiCGStab:  Solving for Uy, Initial residual = 0.000734848, Final residual = 5.87011e-11, No Iterations 6
Pressure gradient source: uncorrected Ubar = 0.020188, pressure gradient = 5.87369e-06
GAMG:  Solving for p, Initial residual = 0.00222401, Final residual = 0.000103924, No Iterations 3
GAMG:  Solving for p, Initial residual = 0.000379139, Final residual = 1.12096e-05, No Iterations 4
time step continuity errors : sum local = 2.32313e-09, global = -1.70166e-19, cumulative = 8.53889e-17
Pressure gradient source: uncorrected Ubar = 0.020188, pressure gradient = 5.85358e-06
DILUPBiCGStab:  Solving for omega, Initial residual = 3.05998e-07, Final residual = 7.0058e-11, No Iterations 3
DILUPBiCGStab:  Solving for k, Initial residual = 0.000304163, Final residual = 9.8184e-11, No Iterations 5
ExecutionTime = 1.03 s  ClockTime = 1 s

Time = 75

DILUPBiCGStab:  Solving for Ux, Initial residual = 0.000107576, Final residual = 2.5752e-11, No Iterations 5
DILUPBiCGStab:  Solving for Uy, Initial residual = 0.000741258, Final residual = 6.00103e-11, No Iterations 6
Pressure gradient source: uncorrected Ubar = 0.020188, pressure gradient = 5.87443e-06
GAMG:  Solving for p, Initial residual = 0.00221963, Final residual = 0.000105007, No Iterations 3
GAMG:  Solving for p, Initial residual = 0.000377192, Final residual = 1.118e-05, No Iterations 4
time step continuity errors : sum local = 2.32757e-09, global = -4.61472e-20, cumulative = 8.53428e-17
Pressure gradient source: uncorrected Ubar = 0.020188, pressure gradient = 5.85404e-06
DILUPBiCGStab:  Solving for omega, Initial residual = 3.05062e-07, Final residual = 7.38317e-11, No Iterations 3
DILUPBiCGStab:  Solving for k, Initial residual = 0.000303085, Final residual = 2.68265e-11, No Iterations 6
ExecutionTime = 1.04 s  ClockTime = 1 s

Time = 76

DILUPBiCGStab:  Solving for Ux, Initial residual = 0.000107918, Final residual = 2.61159e-11, No Iterations 5
DILUPBiCGStab:  Solving for Uy, Initial residual = 0.000747509, Final residual = 6.14791e-11, No Iterations 6
Pressure gradient source: uncorrected Ubar = 0.020188, pressure gradient = 5.87517e-06
GAMG:  Solving for p, Initial residual = 0.00222042, Final residual = 0.000106151, No Iterations 3
GAMG:  Solving for p, Initial residual = 0.000375772, Final residual = 1.11668e-05, No Iterations 4
time step continuity errors : sum local = 2.33433e-09, global = 5.29748e-20, cumulative = 8.53958e-17
Pressure gradient source: uncorrected Ubar = 0.020188, pressure gradient = 5.85453e-06
DILUPBiCGStab:  Solving for omega, Initial residual = 3.0419e-07, Final residual = 7.62614e-11, No Iterations 3
DILUPBiCGStab:  Solving for k, Initial residual = 0.000302054, Final residual = 2.52447e-11, No Iterations 6
ExecutionTime = 1.05 s  ClockTime = 1 s

Time = 77

DILUPBiCGStab:  Solving for Ux, Initial residual = 0.00010826, Final residual = 2.64829e-11, No Iterations 5
DILUPBiCGStab:  Solving for Uy, Initial residual = 0.000753525, Final residual = 6.30402e-11, No Iterations 6
Pressure gradient source: uncorrected Ubar = 0.020188, pressure gradient = 5.87588e-06
GAMG:  Solving for p, Initial residual = 0.0022077, Final residual = 0.000107631, No Iterations 3
GAMG:  Solving for p, Initial residual = 0.000374861, Final residual = 1.15159e-05, No Iterations 4
time step continuity errors : sum local = 2.3899e-09, global = 2.01303e-20, cumulative = 8.54159e-17
Pressure gradient source: uncorrected Ubar = 0.020188, pressure gradient = 5.85513e-06
DILUPBiCGStab:  Solving for omega, Initial residual = 3.033e-07, Final residual = 7.78542e-11, No Iterations 3
DILUPBiCGStab:  Solving for k, Initial residual = 0.000301048, Final residual = 2.29144e-11, No Iterations 6
ExecutionTime = 1.07 s  ClockTime = 1 s

Time = 78

DILUPBiCGStab:  Solving for Ux, Initial residual = 0.000108604, Final residual = 2.68646e-11, No Iterations 5
DILUPBiCGStab:  Solving for Uy, Initial residual = 0.000759477, Final residual = 6.468e-11, No Iterations 6
Pressure gradient source: uncorrected Ubar = 0.020188, pressure gradient = 5.87647e-06
GAMG:  Solving for p, Initial residual = 0.00219984, Final residual = 0.000108472, No Iterations 3
GAMG:  Solving for p, Initial residual = 0.000376294, Final residual = 1.36318e-05, No Iterations 4
time step continuity errors : sum local = 2.81412e-09, global = 2.66354e-19, cumulative = 8.56822e-17
Pressure gradient source: uncorrected Ubar = 0.020188, pressure gradient = 5.85521e-06
DILUPBiCGStab:  Solving for omega, Initial residual = 3.02485e-07, Final residual = 7.82339e-11, No Iterations 3
DILUPBiCGStab:  Solving for k, Initial residual = 0.000300056, Final residual = 1.89913e-11, No Iterations 6
ExecutionTime = 1.08 s  ClockTime = 1 s

Time = 79

DILUPBiCGStab:  Solving for Ux, Initial residual = 0.00010894, Final residual = 2.73175e-11, No Iterations 5
DILUPBiCGStab:  Solving for Uy, Initial residual = 0.000765256, Final residual = 6.64899e-11, No Iterations 6
Pressure gradient source: uncorrected Ubar = 0.020188, pressure gradient = 5.87788e-06
GAMG:  Solving for p, Initial residual = 0.00220202, Final residual = 5.27976e-05, No Iterations 4
GAMG:  Solving for p, Initial residual = 0.000340656, Final residual = 1.05238e-05, No Iterations 4
time step continuity errors : sum local = 2.21231e-09, global = 1.13591e-19, cumulative = 8.57958e-17
Pressure gradient source: uncorrected Ubar = 0.020188, pressure gradient = 5.85636e-06
DILUPBiCGStab:  Solving for omega, Initial residual = 3.0173e-07, Final residual = 7.79536e-11, No Iterations 3
DILUPBiCGStab:  Solving for k, Initial residual = 0.000299093, Final residual = 1.29543e-11, No Iterations 6
ExecutionTime = 1.09 s  ClockTime = 1 s

Time = 80

DILUPBiCGStab:  Solving for Ux, Initial residual = 0.000109289, Final residual = 2.7821e-11, No Iterations 5
DILUPBiCGStab:  Solving for Uy, Initial residual = 0.000770848, Final residual = 6.82954e-11, No Iterations 6
Pressure gradient source: uncorrected Ubar = 0.020188, pressure gradient = 5.87749e-06
GAMG:  Solving for p, Initial residual = 0.00219089, Final residual = 5.31745e-05, No Iterations 4
GAMG:  Solving for p, Initial residual = 0.000336412, Final residual = 1.06414e-05, No Iterations 4
[...]
time step continuity errors : sum local = 1.84354e-11, global = 1.21689e-19, cumulative = 1.1881e-16
Pressure gradient source: uncorrected Ubar = 0.020188, pressure gradient = 5.79922e-06
DILUPBiCGStab:  Solving for omega, Initial residual = 3.37274e-09, Final residual = 4.89141e-11, No Iterations 1
DILUPBiCGStab:  Solving for k, Initial residual = 7.23454e-06, Final residual = 3.22568e-11, No Iterations 4
ExecutionTime = 15.45 s  ClockTime = 16 s

Time = 1206

DILUPBiCGStab:  Solving for Ux, Initial residual = 1.38798e-06, Final residual = 6.25745e-11, No Iterations 3
DILUPBiCGStab:  Solving for Uy, Initial residual = 1.18153e-05, Final residual = 4.39317e-11, No Iterations 4
Pressure gradient source: uncorrected Ubar = 0.020188, pressure gradient = 5.79804e-06
GAMG:  Solving for p, Initial residual = 9.25531e-06, Final residual = 3.0177e-07, No Iterations 5
GAMG:  Solving for p, Initial residual = 2.689e-06, Final residual = 1.00293e-07, No Iterations 4
time step continuity errors : sum local = 1.82767e-11, global = 1.06046e-19, cumulative = 1.18916e-16
Pressure gradient source: uncorrected Ubar = 0.020188, pressure gradient = 5.79925e-06
DILUPBiCGStab:  Solving for omega, Initial residual = 3.35391e-09, Final residual = 4.85393e-11, No Iterations 1
DILUPBiCGStab:  Solving for k, Initial residual = 7.21117e-06, Final residual = 3.21668e-11, No Iterations 4
ExecutionTime = 15.47 s  ClockTime = 16 s

Time = 1207

DILUPBiCGStab:  Solving for Ux, Initial residual = 1.38234e-06, Final residual = 6.25019e-11, No Iterations 3
DILUPBiCGStab:  Solving for Uy, Initial residual = 1.17142e-05, Final residual = 2.87103e-11, No Iterations 4
Pressure gradient source: uncorrected Ubar = 0.020188, pressure gradient = 5.79808e-06
GAMG:  Solving for p, Initial residual = 9.21995e-06, Final residual = 2.99548e-07, No Iterations 5
GAMG:  Solving for p, Initial residual = 2.66982e-06, Final residual = 9.9392e-08, No Iterations 4
time step continuity errors : sum local = 1.8113e-11, global = 1.29638e-19, cumulative = 1.19045e-16
Pressure gradient source: uncorrected Ubar = 0.020188, pressure gradient = 5.79928e-06
DILUPBiCGStab:  Solving for omega, Initial residual = 3.33524e-09, Final residual = 4.81664e-11, No Iterations 1
DILUPBiCGStab:  Solving for k, Initial residual = 7.18778e-06, Final residual = 3.20716e-11, No Iterations 4
ExecutionTime = 15.48 s  ClockTime = 16 s

Time = 1208

DILUPBiCGStab:  Solving for Ux, Initial residual = 1.37672e-06, Final residual = 6.24262e-11, No Iterations 3
DILUPBiCGStab:  Solving for Uy, Initial residual = 1.16138e-05, Final residual = 8.03599e-11, No Iterations 4
Pressure gradient source: uncorrected Ubar = 0.020188, pressure gradient = 5.79813e-06
GAMG:  Solving for p, Initial residual = 9.18427e-06, Final residual = 2.97241e-07, No Iterations 5
GAMG:  Solving for p, Initial residual = 2.65e-06, Final residual = 9.84719e-08, No Iterations 4
time step continuity errors : sum local = 1.79459e-11, global = 7.80644e-20, cumulative = 1.19123e-16
Pressure gradient source: uncorrected Ubar = 0.020188, pressure gradient = 5.79931e-06
DILUPBiCGStab:  Solving for omega, Initial residual = 3.31676e-09, Final residual = 4.77936e-11, No Iterations 1
DILUPBiCGStab:  Solving for k, Initial residual = 7.16445e-06, Final residual = 3.19708e-11, No Iterations 4
ExecutionTime = 15.49 s  ClockTime = 16 s

Time = 1209

DILUPBiCGStab:  Solving for Ux, Initial residual = 1.37112e-06, Final residual = 6.23448e-11, No Iterations 3
DILUPBiCGStab:  Solving for Uy, Initial residual = 1.15132e-05, Final residual = 7.00811e-11, No Iterations 4
Pressure gradient source: uncorrected Ubar = 0.020188, pressure gradient = 5.79817e-06
GAMG:  Solving for p, Initial residual = 9.14965e-06, Final residual = 2.94982e-07, No Iterations 5
GAMG:  Solving for p, Initial residual = 2.63042e-06, Final residual = 9.75539e-08, No Iterations 4
time step continuity errors : sum local = 1.77792e-11, global = 1.82381e-19, cumulative = 1.19306e-16
Pressure gradient source: uncorrected Ubar = 0.020188, pressure gradient = 5.79934e-06
DILUPBiCGStab:  Solving for omega, Initial residual = 3.29832e-09, Final residual = 4.74223e-11, No Iterations 1
DILUPBiCGStab:  Solving for k, Initial residual = 7.14109e-06, Final residual = 3.18651e-11, No Iterations 4
ExecutionTime = 15.51 s  ClockTime = 16 s

Time = 1210

DILUPBiCGStab:  Solving for Ux, Initial residual = 1.36558e-06, Final residual = 6.22559e-11, No Iterations 3
DILUPBiCGStab:  Solving for Uy, Initial residual = 1.14124e-05, Final residual = 7.63956e-11, No Iterations 4
Pressure gradient source: uncorrected Ubar = 0.020188, pressure gradient = 5.79821e-06
GAMG:  Solving for p, Initial residual = 9.11518e-06, Final residual = 2.92749e-07, No Iterations 5
GAMG:  Solving for p, Initial residual = 2.61095e-06, Final residual = 9.6644e-08, No Iterations 4
time step continuity errors : sum local = 1.76138e-11, global = -3.94654e-20, cumulative = 1.19266e-16
Pressure gradient source: uncorrected Ubar = 0.020188, pressure gradient = 5.79937e-06
DILUPBiCGStab:  Solving for omega, Initial residual = 3.28002e-09, Final residual = 4.70526e-11, No Iterations 1
DILUPBiCGStab:  Solving for k, Initial residual = 7.11785e-06, Final residual = 3.17545e-11, No Iterations 4
ExecutionTime = 15.52 s  ClockTime = 16 s

Time = 1211

DILUPBiCGStab:  Solving for Ux, Initial residual = 1.36006e-06, Final residual = 6.2162e-11, No Iterations 3
DILUPBiCGStab:  Solving for Uy, Initial residual = 1.13119e-05, Final residual = 8.70916e-11, No Iterations 4
Pressure gradient source: uncorrected Ubar = 0.020188, pressure gradient = 5.79825e-06
GAMG:  Solving for p, Initial residual = 9.0807e-06, Final residual = 2.90487e-07, No Iterations 5
GAMG:  Solving for p, Initial residual = 2.59138e-06, Final residual = 9.57309e-08, No Iterations 4
time step continuity errors : sum local = 1.74479e-11, global = 2.15095e-19, cumulative = 1.19481e-16
Pressure gradient source: uncorrected Ubar = 0.020188, pressure gradient = 5.79939e-06
DILUPBiCGStab:  Solving for omega, Initial residual = 3.26188e-09, Final residual = 4.66849e-11, No Iterations 1
DILUPBiCGStab:  Solving for k, Initial residual = 7.09455e-06, Final residual = 3.16409e-11, No Iterations 4
ExecutionTime = 15.54 s  ClockTime = 16 s

Time = 1212

DILUPBiCGStab:  Solving for Ux, Initial residual = 1.35457e-06, Final residual = 6.20643e-11, No Iterations 3
DILUPBiCGStab:  Solving for Uy, Initial residual = 1.1212e-05, Final residual = 9.64802e-11, No Iterations 4
Pressure gradient source: uncorrected Ubar = 0.020188, pressure gradient = 5.79828e-06
GAMG:  Solving for p, Initial residual = 9.04628e-06, Final residual = 2.88172e-07, No Iterations 5
GAMG:  Solving for p, Initial residual = 2.57167e-06, Final residual = 9.4815e-08, No Iterations 4
time step continuity errors : sum local = 1.72816e-11, global = -3.31694e-20, cumulative = 1.19448e-16
Pressure gradient source: uncorrected Ubar = 0.020188, pressure gradient = 5.79942e-06
DILUPBiCGStab:  Solving for omega, Initial residual = 3.24383e-09, Final residual = 4.63232e-11, No Iterations 1
DILUPBiCGStab:  Solving for k, Initial residual = 7.07143e-06, Final residual = 3.1524e-11, No Iterations 4
ExecutionTime = 15.55 s  ClockTime = 16 s

Time = 1213

DILUPBiCGStab:  Solving for Ux, Initial residual = 1.34911e-06, Final residual = 6.19615e-11, No Iterations 3
DILUPBiCGStab:  Solving for Uy, Initial residual = 1.11122e-05, Final residual = 2.27221e-11, No Iterations 4
Pressure gradient source: uncorrected Ubar = 0.020188, pressure gradient = 5.79832e-06
GAMG:  Solving for p, Initial residual = 9.01277e-06, Final residual = 2.85832e-07, No Iterations 5
GAMG:  Solving for p, Initial residual = 2.55181e-06, Final residual = 9.38997e-08, No Iterations 4
time step continuity errors : sum local = 1.71153e-11, global = 1.61672e-19, cumulative = 1.1961e-16
Pressure gradient source: uncorrected Ubar = 0.020188, pressure gradient = 5.79944e-06
DILUPBiCGStab:  Solving for omega, Initial residual = 3.22596e-09, Final residual = 4.59656e-11, No Iterations 1
DILUPBiCGStab:  Solving for k, Initial residual = 7.04825e-06, Final residual = 3.14044e-11, No Iterations 4
ExecutionTime = 15.57 s  ClockTime = 16 s

Time = 1214

DILUPBiCGStab:  Solving for Ux, Initial residual = 1.34368e-06, Final residual = 6.18548e-11, No Iterations 3
DILUPBiCGStab:  Solving for Uy, Initial residual = 1.10126e-05, Final residual = 2.4481e-11, No Iterations 4
Pressure gradient source: uncorrected Ubar = 0.020188, pressure gradient = 5.79835e-06
GAMG:  Solving for p, Initial residual = 8.97877e-06, Final residual = 2.83472e-07, No Iterations 5
GAMG:  Solving for p, Initial residual = 2.53202e-06, Final residual = 9.29881e-08, No Iterations 4
time step continuity errors : sum local = 1.69498e-11, global = 1.32392e-19, cumulative = 1.19742e-16
Pressure gradient source: uncorrected Ubar = 0.020188, pressure gradient = 5.79946e-06
DILUPBiCGStab:  Solving for omega, Initial residual = 3.20823e-09, Final residual = 4.56095e-11, No Iterations 1
DILUPBiCGStab:  Solving for k, Initial residual = 7.02522e-06, Final residual = 3.1282e-11, No Iterations 4
ExecutionTime = 15.58 s  ClockTime = 16 s

Time = 1215

DILUPBiCGStab:  Solving for Ux, Initial residual = 1.33829e-06, Final residual = 6.17454e-11, No Iterations 3
DILUPBiCGStab:  Solving for Uy, Initial residual = 1.09128e-05, Final residual = 2.59172e-11, No Iterations 4
Pressure gradient source: uncorrected Ubar = 0.020188, pressure gradient = 5.79838e-06
GAMG:  Solving for p, Initial residual = 8.94545e-06, Final residual = 2.81106e-07, No Iterations 5
GAMG:  Solving for p, Initial residual = 2.51223e-06, Final residual = 9.20769e-08, No Iterations 4
time step continuity errors : sum local = 1.67843e-11, global = -1.6872e-19, cumulative = 1.19574e-16
Pressure gradient source: uncorrected Ubar = 0.020188, pressure gradient = 5.79948e-06
DILUPBiCGStab:  Solving for omega, Initial residual = 3.1907e-09, Final residual = 4.52572e-11, No Iterations 1
DILUPBiCGStab:  Solving for k, Initial residual = 7.00224e-06, Final residual = 3.11579e-11, No Iterations 4
ExecutionTime = 15.6 s  ClockTime = 16 s

Time = 1216

DILUPBiCGStab:  Solving for Ux, Initial residual = 1.33293e-06, Final residual = 6.16339e-11, No Iterations 3
DILUPBiCGStab:  Solving for Uy, Initial residual = 1.08138e-05, Final residual = 2.70383e-11, No Iterations 4
Pressure gradient source: uncorrected Ubar = 0.020188, pressure gradient = 5.79841e-06
GAMG:  Solving for p, Initial residual = 8.91283e-06, Final residual = 2.78722e-07, No Iterations 5
GAMG:  Solving for p, Initial residual = 2.49242e-06, Final residual = 9.11654e-08, No Iterations 4
time step continuity errors : sum local = 1.66188e-11, global = -9.70491e-21, cumulative = 1.19564e-16
Pressure gradient source: uncorrected Ubar = 0.020188, pressure gradient = 5.79949e-06
DILUPBiCGStab:  Solving for omega, Initial residual = 3.17329e-09, Final residual = 4.49078e-11, No Iterations 1
DILUPBiCGStab:  Solving for k, Initial residual = 6.97935e-06, Final residual = 3.10319e-11, No Iterations 4
ExecutionTime = 15.61 s  ClockTime = 16 s

Time = 1217

DILUPBiCGStab:  Solving for Ux, Initial residual = 1.3276e-06, Final residual = 6.15169e-11, No Iterations 3
DILUPBiCGStab:  Solving for Uy, Initial residual = 1.07154e-05, Final residual = 2.78984e-11, No Iterations 4
Pressure gradient source: uncorrected Ubar = 0.020188, pressure gradient = 5.79844e-06
GAMG:  Solving for p, Initial residual = 8.88069e-06, Final residual = 2.76316e-07, No Iterations 5
GAMG:  Solving for p, Initial residual = 2.47257e-06, Final residual = 9.02559e-08, No Iterations 4
time step continuity errors : sum local = 1.64537e-11, global = -1.43291e-20, cumulative = 1.19549e-16
Pressure gradient source: uncorrected Ubar = 0.020188, pressure gradient = 5.79951e-06
DILUPBiCGStab:  Solving for omega, Initial residual = 3.15599e-09, Final residual = 4.45595e-11, No Iterations 1
DILUPBiCGStab:  Solving for k, Initial residual = 6.95655e-06, Final residual = 3.09051e-11, No Iterations 4
ExecutionTime = 15.62 s  ClockTime = 16 s

Time = 1218

DILUPBiCGStab:  Solving for Ux, Initial residual = 1.32231e-06, Final residual = 6.13936e-11, No Iterations 3
DILUPBiCGStab:  Solving for Uy, Initial residual = 1.06169e-05, Final residual = 2.85528e-11, No Iterations 4
Pressure gradient source: uncorrected Ubar = 0.020188, pressure gradient = 5.79847e-06
GAMG:  Solving for p, Initial residual = 8.84882e-06, Final residual = 2.73892e-07, No Iterations 5
GAMG:  Solving for p, Initial residual = 2.4527e-06, Final residual = 8.9348e-08, No Iterations 4
time step continuity errors : sum local = 1.62889e-11, global = -3.33425e-19, cumulative = 1.19216e-16
Pressure gradient source: uncorrected Ubar = 0.020188, pressure gradient = 5.79952e-06
DILUPBiCGStab:  Solving for omega, Initial residual = 3.13896e-09, Final residual = 4.42145e-11, No Iterations 1
DILUPBiCGStab:  Solving for k, Initial residual = 6.93382e-06, Final residual = 3.07789e-11, No Iterations 4
ExecutionTime = 15.64 s  ClockTime = 16 s

Time = 1219

DILUPBiCGStab:  Solving for Ux, Initial residual = 1.31704e-06, Final residual = 6.12661e-11, No Iterations 3
DILUPBiCGStab:  Solving for Uy, Initial residual = 1.05189e-05, Final residual = 2.90481e-11, No Iterations 4
Pressure gradient source: uncorrected Ubar = 0.020188, pressure gradient = 5.7985e-06
GAMG:  Solving for p, Initial residual = 8.81669e-06, Final residual = 2.71454e-07, No Iterations 5
GAMG:  Solving for p, Initial residual = 2.43314e-06, Final residual = 8.84436e-08, No Iterations 4
time step continuity errors : sum local = 1.61248e-11, global = 8.44475e-21, cumulative = 1.19224e-16
Pressure gradient source: uncorrected Ubar = 0.020188, pressure gradient = 5.79954e-06
DILUPBiCGStab:  Solving for omega, Initial residual = 3.12202e-09, Final residual = 4.38731e-11, No Iterations 1
DILUPBiCGStab:  Solving for k, Initial residual = 6.91117e-06, Final residual = 3.06532e-11, No Iterations 4
ExecutionTime = 15.65 s  ClockTime = 16 s

Time = 1220

DILUPBiCGStab:  Solving for Ux, Initial residual = 1.31179e-06, Final residual = 6.11362e-11, No Iterations 3
DILUPBiCGStab:  Solving for Uy, Initial residual = 1.04214e-05, Final residual = 2.94143e-11, No Iterations 4
Pressure gradient source: uncorrected Ubar = 0.020188, pressure gradient = 5.79852e-06
GAMG:  Solving for p, Initial residual = 8.78467e-06, Final residual = 2.69008e-07, No Iterations 5
GAMG:  Solving for p, Initial residual = 2.41398e-06, Final residual = 8.75408e-08, No Iterations 4
time step continuity errors : sum local = 1.5961e-11, global = -1.32563e-19, cumulative = 1.19092e-16
Pressure gradient source: uncorrected Ubar = 0.020188, pressure gradient = 5.79955e-06
DILUPBiCGStab:  Solving for omega, Initial residual = 3.10526e-09, Final residual = 4.3535e-11, No Iterations 1
DILUPBiCGStab:  Solving for k, Initial residual = 6.88844e-06, Final residual = 3.05277e-11, No Iterations 4
ExecutionTime = 15.66 s  ClockTime = 16 s

Time = 1221

DILUPBiCGStab:  Solving for Ux, Initial residual = 1.30658e-06, Final residual = 6.10016e-11, No Iterations 3
DILUPBiCGStab:  Solving for Uy, Initial residual = 1.03241e-05, Final residual = 2.96662e-11, No Iterations 4
Pressure gradient source: uncorrected Ubar = 0.020188, pressure gradient = 5.79854e-06
GAMG:  Solving for p, Initial residual = 8.75228e-06, Final residual = 2.66551e-07, No Iterations 5
GAMG:  Solving for p, Initial residual = 2.39489e-06, Final residual = 8.66406e-08, No Iterations 4
time step continuity errors : sum local = 1.57977e-11, global = 3.65263e-20, cumulative = 1.19128e-16
Pressure gradient source: uncorrected Ubar = 0.020188, pressure gradient = 5.79956e-06
DILUPBiCGStab:  Solving for omega, Initial residual = 3.08869e-09, Final residual = 4.32e-11, No Iterations 1
DILUPBiCGStab:  Solving for k, Initial residual = 6.86585e-06, Final residual = 3.04018e-11, No Iterations 4
ExecutionTime = 15.68 s  ClockTime = 16 s

Time = 1222

DILUPBiCGStab:  Solving for Ux, Initial residual = 1.3014e-06, Final residual = 6.08618e-11, No Iterations 3
DILUPBiCGStab:  Solving for Uy, Initial residual = 1.02273e-05, Final residual = 2.98342e-11, No Iterations 4
Pressure gradient source: uncorrected Ubar = 0.020188, pressure gradient = 5.79857e-06
GAMG:  Solving for p, Initial residual = 8.71934e-06, Final residual = 2.64079e-07, No Iterations 5
GAMG:  Solving for p, Initial residual = 2.37578e-06, Final residual = 8.57431e-08, No Iterations 4
time step continuity errors : sum local = 1.5635e-11, global = -1.07456e-19, cumulative = 1.19021e-16
Pressure gradient source: uncorrected Ubar = 0.020188, pressure gradient = 5.79957e-06
DILUPBiCGStab:  Solving for omega, Initial residual = 3.07226e-09, Final residual = 4.28673e-11, No Iterations 1
DILUPBiCGStab:  Solving for k, Initial residual = 6.8432e-06, Final residual = 3.02777e-11, No Iterations 4
ExecutionTime = 15.69 s  ClockTime = 16 s

Time = 1223

DILUPBiCGStab:  Solving for Ux, Initial residual = 1.29627e-06, Final residual = 6.07185e-11, No Iterations 3
DILUPBiCGStab:  Solving for Uy, Initial residual = 1.01309e-05, Final residual = 2.99416e-11, No Iterations 4
Pressure gradient source: uncorrected Ubar = 0.020188, pressure gradient = 5.79859e-06
GAMG:  Solving for p, Initial residual = 8.68649e-06, Final residual = 2.61599e-07, No Iterations 5
GAMG:  Solving for p, Initial residual = 2.35665e-06, Final residual = 8.48471e-08, No Iterations 4
time step continuity errors : sum local = 1.54725e-11, global = 2.99729e-19, cumulative = 1.19321e-16
Pressure gradient source: uncorrected Ubar = 0.020188, pressure gradient = 5.79958e-06
DILUPBiCGStab:  Solving for omega, Initial residual = 3.05601e-09, Final residual = 4.25375e-11, No Iterations 1
DILUPBiCGStab:  Solving for k, Initial residual = 6.82064e-06, Final residual = 3.01555e-11, No Iterations 4
ExecutionTime = 15.71 s  ClockTime = 16 s

Time = 1224

DILUPBiCGStab:  Solving for Ux, Initial residual = 1.29116e-06, Final residual = 6.05722e-11, No Iterations 3
DILUPBiCGStab:  Solving for Uy, Initial residual = 1.00353e-05, Final residual = 2.99906e-11, No Iterations 4
Pressure gradient source: uncorrected Ubar = 0.020188, pressure gradient = 5.79861e-06
GAMG:  Solving for p, Initial residual = 8.65389e-06, Final residual = 2.59025e-07, No Iterations 5
GAMG:  Solving for p, Initial residual = 2.3375e-06, Final residual = 8.39488e-08, No Iterations 4
time step continuity errors : sum local = 1.53096e-11, global = -3.23641e-19, cumulative = 1.18997e-16
Pressure gradient source: uncorrected Ubar = 0.020188, pressure gradient = 5.79958e-06
DILUPBiCGStab:  Solving for omega, Initial residual = 3.03995e-09, Final residual = 4.22129e-11, No Iterations 1
DILUPBiCGStab:  Solving for k, Initial residual = 6.79803e-06, Final residual = 3.00333e-11, No Iterations 4
ExecutionTime = 15.72 s  ClockTime = 16 s

Time = 1225

DILUPBiCGStab:  Solving for Ux, Initial residual = 1.2861e-06, Final residual = 6.04222e-11, No Iterations 3
DILUPBiCGStab:  Solving for Uy, Initial residual = 9.94004e-06, Final residual = 2.99866e-11, No Iterations 4
Pressure gradient source: uncorrected Ubar = 0.020188, pressure gradient = 5.79862e-06
GAMG:  Solving for p, Initial residual = 8.62184e-06, Final residual = 2.56529e-07, No Iterations 5
GAMG:  Solving for p, Initial residual = 2.31844e-06, Final residual = 8.30527e-08, No Iterations 4
time step continuity errors : sum local = 1.51473e-11, global = -2.84271e-19, cumulative = 1.18713e-16
Pressure gradient source: uncorrected Ubar = 0.020188, pressure gradient = 5.79959e-06
DILUPBiCGStab:  Solving for omega, Initial residual = 3.024e-09, Final residual = 4.18937e-11, No Iterations 1
DILUPBiCGStab:  Solving for k, Initial residual = 6.77551e-06, Final residual = 2.99129e-11, No Iterations 4
ExecutionTime = 15.73 s  ClockTime = 16 s


SIMPLE solution converged in 1225 iterations

End

Finalising parallel run
