/*---------------------------------------------------------------------------*\
| =========                 |                                                 |
| \\      /  F ield         | OpenFOAM: The Open Source CFD Toolbox           |
|  \\    /   O peration     | Version:  2112                                  |
|   \\  /    A nd           | Website:  www.openfoam.com                      |
|    \\/     M anipulation  |                                                 |
\*---------------------------------------------------------------------------*/
Build  : _6e1fca0e-20220610 OPENFOAM=2112 patch=220610 version=2112
Arch   : "LSB;label=32;scalar=64"
Exec   : simpleFoam -parallel -case periodichills_tuner
Date   : Jul 02 2022
Time   : 11:35:41
Host   : pop-os
PID    : 12452
I/O    : uncollated
Case   : /home/ryley/ML/turborans/examples/openfoam_periodichills/periodichills_tuner
nProcs : 8
Hosts  :
(
    (pop-os 8)
)
Pstream initialized with:
    floatTransfer      : 0
    nProcsSimpleSum    : 0
    commsType          : nonBlocking
    polling iterations : 0
trapFpe: Floating point exception trapping enabled (FOAM_SIGFPE).
fileModificationChecking : Monitoring run-time modified files using timeStampMaster (fileModificationSkew 5, maxFileModificationPolls 20)
allowSystemOperations : Allowing user-supplied system call operations

// * * * * * * * * * * * * * * * * * * * * * * * * * * * * * * * * * * * * * //
Create time

--> FOAM Warning :
    From void Foam::Time::setControls()
    in file db/Time/Time.C at line 335
    Reading "processor0/0/uniform/time" at line 18 to 26
    Time read from time dictionary 20000 differs from actual time 0.
    This may cause unexpected database behaviour. If you are not interested
    in preserving time state delete the time dictionary.
Create mesh for time = 0


SIMPLE: convergence criteria
    field p	 tolerance 1e-05
    field U	 tolerance 1e-05
    field "(k|epsilon|omega|f|v2)"	 tolerance 1e-05

Reading field p

Reading field U

Reading/calculating face flux field phi

Selecting incompressible transport model Newtonian
Selecting turbulence model type RAS
Selecting RAS turbulence model kOmegaSST
Selecting patchDistMethod meshWave
RAS
{
    RASModel        kOmegaSST;
    turbulence      on;
    printCoeffs     on;
    betaStar        0.0841086;
    a1              0.415386;
    alphaK1         0.85;
    alphaK2         1;
    alphaOmega1     0.5;
    alphaOmega2     0.856;
    gamma1          0.555556;
    gamma2          0.44;
    beta1           0.075;
    beta2           0.0828;
    b1              1;
    c1              10;
    F3              false;
    decayControl    false;
    kInf            0;
    omegaInf        0;
}

No MRF models present

Creating finite volume options from "system/fvOptions"

Selecting finite volume options type meanVelocityForce
    Source: momentumSource
    - selecting all cells
    - selected 14751 cell(s) with volume 2.54013
    Reading pressure gradient from file
    Initial pressure gradient = 6.28039e-06


Starting time loop

Time = 1

DILUPBiCGStab:  Solving for Ux, Initial residual = 0.000109599, Final residual = 1.34458e-11, No Iterations 5
DILUPBiCGStab:  Solving for Uy, Initial residual = 0.000257839, Final residual = 4.22594e-11, No Iterations 5
Pressure gradient source: uncorrected Ubar = 0.0201877, pressure gradient = 7.01263e-06
GAMG:  Solving for p, Initial residual = 0.056455, Final residual = 0.00230419, No Iterations 3
GAMG:  Solving for p, Initial residual = 0.0108083, Final residual = 0.0005236, No Iterations 3
time step continuity errors : sum local = 8.76135e-08, global = -8.89584e-20, cumulative = 8.28113e-17
Pressure gradient source: uncorrected Ubar = 0.0201878, pressure gradient = 6.7119e-06
DILUPBiCGStab:  Solving for omega, Initial residual = 3.58994e-07, Final residual = 2.95097e-12, No Iterations 4
DILUPBiCGStab:  Solving for k, Initial residual = 0.00129669, Final residual = 1.47627e-11, No Iterations 6
ExecutionTime = 0.08 s  ClockTime = 1 s

Time = 2

DILUPBiCGStab:  Solving for Ux, Initial residual = 0.00011586, Final residual = 1.44715e-11, No Iterations 5
DILUPBiCGStab:  Solving for Uy, Initial residual = 0.000248418, Final residual = 5.39619e-11, No Iterations 5
Pressure gradient source: uncorrected Ubar = 0.0201882, pressure gradient = 6.20798e-06
GAMG:  Solving for p, Initial residual = 0.0226301, Final residual = 0.000635521, No Iterations 3
GAMG:  Solving for p, Initial residual = 0.00447064, Final residual = 0.000208597, No Iterations 3
time step continuity errors : sum local = 3.51629e-08, global = -3.58439e-19, cumulative = 8.24529e-17
Pressure gradient source: uncorrected Ubar = 0.020188, pressure gradient = 6.80613e-06
DILUPBiCGStab:  Solving for omega, Initial residual = 3.85078e-07, Final residual = 4.51998e-11, No Iterations 3
DILUPBiCGStab:  Solving for k, Initial residual = 0.00129215, Final residual = 1.23801e-11, No Iterations 6
ExecutionTime = 0.09 s  ClockTime = 1 s

Time = 3

DILUPBiCGStab:  Solving for Ux, Initial residual = 0.000115091, Final residual = 1.57552e-11, No Iterations 5
DILUPBiCGStab:  Solving for Uy, Initial residual = 0.000270554, Final residual = 6.36392e-11, No Iterations 5
Pressure gradient source: uncorrected Ubar = 0.0201883, pressure gradient = 6.22649e-06
GAMG:  Solving for p, Initial residual = 0.0118789, Final residual = 0.000575504, No Iterations 1
GAMG:  Solving for p, Initial residual = 0.00147054, Final residual = 6.78722e-05, No Iterations 3
time step continuity errors : sum local = 1.09561e-08, global = 1.0942e-19, cumulative = 8.25623e-17
Pressure gradient source: uncorrected Ubar = 0.0201881, pressure gradient = 6.63107e-06
DILUPBiCGStab:  Solving for omega, Initial residual = 4.07516e-07, Final residual = 4.39303e-11, No Iterations 3
DILUPBiCGStab:  Solving for k, Initial residual = 0.00128794, Final residual = 1.2267e-11, No Iterations 6
ExecutionTime = 0.11 s  ClockTime = 1 s

Time = 4

DILUPBiCGStab:  Solving for Ux, Initial residual = 0.000112859, Final residual = 1.63551e-11, No Iterations 5
DILUPBiCGStab:  Solving for Uy, Initial residual = 0.000268751, Final residual = 5.74867e-11, No Iterations 5
Pressure gradient source: uncorrected Ubar = 0.020188, pressure gradient = 6.63012e-06
GAMG:  Solving for p, Initial residual = 0.00755139, Final residual = 0.000358539, No Iterations 2
GAMG:  Solving for p, Initial residual = 0.00104383, Final residual = 4.29453e-05, No Iterations 4
time step continuity errors : sum local = 7.07851e-09, global = 1.22882e-21, cumulative = 8.25636e-17
Pressure gradient source: uncorrected Ubar = 0.020188, pressure gradient = 6.53507e-06
DILUPBiCGStab:  Solving for omega, Initial residual = 4.33112e-07, Final residual = 4.85882e-11, No Iterations 3
DILUPBiCGStab:  Solving for k, Initial residual = 0.00128395, Final residual = 1.2435e-11, No Iterations 6
ExecutionTime = 0.12 s  ClockTime = 1 s

Time = 5

DILUPBiCGStab:  Solving for Ux, Initial residual = 0.000113353, Final residual = 1.71236e-11, No Iterations 5
DILUPBiCGStab:  Solving for Uy, Initial residual = 0.00026119, Final residual = 5.3163e-11, No Iterations 5
Pressure gradient source: uncorrected Ubar = 0.0201879, pressure gradient = 6.76295e-06
GAMG:  Solving for p, Initial residual = 0.00512551, Final residual = 0.000166477, No Iterations 2
GAMG:  Solving for p, Initial residual = 0.00064343, Final residual = 2.31955e-05, No Iterations 3
time step continuity errors : sum local = 3.79537e-09, global = -1.30968e-20, cumulative = 8.25505e-17
Pressure gradient source: uncorrected Ubar = 0.020188, pressure gradient = 6.58689e-06
DILUPBiCGStab:  Solving for omega, Initial residual = 4.61831e-07, Final residual = 5.00315e-11, No Iterations 3
DILUPBiCGStab:  Solving for k, Initial residual = 0.00128004, Final residual = 1.32447e-11, No Iterations 6
ExecutionTime = 0.13 s  ClockTime = 1 s

Time = 6

DILUPBiCGStab:  Solving for Ux, Initial residual = 0.000113903, Final residual = 1.78848e-11, No Iterations 5
DILUPBiCGStab:  Solving for Uy, Initial residual = 0.000260464, Final residual = 5.40267e-11, No Iterations 5
Pressure gradient source: uncorrected Ubar = 0.020188, pressure gradient = 6.63798e-06
GAMG:  Solving for p, Initial residual = 0.00422061, Final residual = 0.000207991, No Iterations 2
GAMG:  Solving for p, Initial residual = 0.000685966, Final residual = 2.97252e-05, No Iterations 3
time step continuity errors : sum local = 4.9227e-09, global = -1.10215e-19, cumulative = 8.24402e-17
Pressure gradient source: uncorrected Ubar = 0.020188, pressure gradient = 6.63766e-06
DILUPBiCGStab:  Solving for omega, Initial residual = 4.84817e-07, Final residual = 5.13594e-11, No Iterations 3
DILUPBiCGStab:  Solving for k, Initial residual = 0.00127623, Final residual = 1.43875e-11, No Iterations 6
ExecutionTime = 0.14 s  ClockTime = 1 s

Time = 7

DILUPBiCGStab:  Solving for Ux, Initial residual = 0.000114113, Final residual = 1.85654e-11, No Iterations 5
DILUPBiCGStab:  Solving for Uy, Initial residual = 0.00026287, Final residual = 5.98481e-11, No Iterations 5
Pressure gradient source: uncorrected Ubar = 0.020188, pressure gradient = 6.57193e-06
GAMG:  Solving for p, Initial residual = 0.00367369, Final residual = 9.52424e-05, No Iterations 3
GAMG:  Solving for p, Initial residual = 0.000617288, Final residual = 2.24357e-05, No Iterations 3
time step continuity errors : sum local = 3.69357e-09, global = 3.64256e-19, cumulative = 8.28045e-17
Pressure gradient source: uncorrected Ubar = 0.020188, pressure gradient = 6.64356e-06
DILUPBiCGStab:  Solving for omega, Initial residual = 5.01765e-07, Final residual = 5.32944e-11, No Iterations 3
DILUPBiCGStab:  Solving for k, Initial residual = 0.00127248, Final residual = 1.64514e-11, No Iterations 6
ExecutionTime = 0.17 s  ClockTime = 1 s

Time = 8

DILUPBiCGStab:  Solving for Ux, Initial residual = 0.000114161, Final residual = 1.91364e-11, No Iterations 5
DILUPBiCGStab:  Solving for Uy, Initial residual = 0.000265694, Final residual = 6.94181e-11, No Iterations 5
Pressure gradient source: uncorrected Ubar = 0.020188, pressure gradient = 6.6036e-06
GAMG:  Solving for p, Initial residual = 0.00319034, Final residual = 8.01109e-05, No Iterations 3
GAMG:  Solving for p, Initial residual = 0.000537774, Final residual = 1.49652e-05, No Iterations 3
time step continuity errors : sum local = 2.44538e-09, global = 1.03624e-19, cumulative = 8.29081e-17
Pressure gradient source: uncorrected Ubar = 0.020188, pressure gradient = 6.63504e-06
DILUPBiCGStab:  Solving for omega, Initial residual = 5.13644e-07, Final residual = 5.54901e-11, No Iterations 3
DILUPBiCGStab:  Solving for k, Initial residual = 0.00126873, Final residual = 1.87716e-11, No Iterations 6
ExecutionTime = 0.18 s  ClockTime = 1 s

Time = 9

DILUPBiCGStab:  Solving for Ux, Initial residual = 0.000114277, Final residual = 1.96384e-11, No Iterations 5
DILUPBiCGStab:  Solving for Uy, Initial residual = 0.000267702, Final residual = 8.21657e-11, No Iterations 5
Pressure gradient source: uncorrected Ubar = 0.020188, pressure gradient = 6.64909e-06
GAMG:  Solving for p, Initial residual = 0.00270743, Final residual = 7.77429e-05, No Iterations 3
GAMG:  Solving for p, Initial residual = 0.00048245, Final residual = 1.31272e-05, No Iterations 3
time step continuity errors : sum local = 2.11819e-09, global = 3.4824e-19, cumulative = 8.32564e-17
Pressure gradient source: uncorrected Ubar = 0.020188, pressure gradient = 6.63909e-06
DILUPBiCGStab:  Solving for omega, Initial residual = 5.21615e-07, Final residual = 5.75655e-11, No Iterations 3
DILUPBiCGStab:  Solving for k, Initial residual = 0.00126499, Final residual = 2.20356e-11, No Iterations 6
ExecutionTime = 0.19 s  ClockTime = 1 s

Time = 10

DILUPBiCGStab:  Solving for Ux, Initial residual = 0.000114476, Final residual = 2.00676e-11, No Iterations 5
DILUPBiCGStab:  Solving for Uy, Initial residual = 0.000269533, Final residual = 3.62041e-11, No Iterations 6
Pressure gradient source: uncorrected Ubar = 0.020188, pressure gradient = 6.66363e-06
GAMG:  Solving for p, Initial residual = 0.00231885, Final residual = 7.4583e-05, No Iterations 3
GAMG:  Solving for p, Initial residual = 0.00045638, Final residual = 1.33247e-05, No Iterations 3
time step continuity errors : sum local = 2.15771e-09, global = -3.14434e-20, cumulative = 8.32249e-17
Pressure gradient source: uncorrected Ubar = 0.020188, pressure gradient = 6.6538e-06
DILUPBiCGStab:  Solving for omega, Initial residual = 5.26731e-07, Final residual = 6.05112e-11, No Iterations 3
DILUPBiCGStab:  Solving for k, Initial residual = 0.00126131, Final residual = 2.53905e-11, No Iterations 6
ExecutionTime = 0.21 s  ClockTime = 1 s

Time = 11

DILUPBiCGStab:  Solving for Ux, Initial residual = 0.000114641, Final residual = 2.03862e-11, No Iterations 5
DILUPBiCGStab:  Solving for Uy, Initial residual = 0.000271941, Final residual = 3.76833e-11, No Iterations 6
Pressure gradient source: uncorrected Ubar = 0.020188, pressure gradient = 6.66222e-06
GAMG:  Solving for p, Initial residual = 0.00203302, Final residual = 7.38558e-05, No Iterations 3
GAMG:  Solving for p, Initial residual = 0.000437114, Final residual = 1.4557e-05, No Iterations 3
time step continuity errors : sum local = 2.35712e-09, global = 2.99041e-20, cumulative = 8.32548e-17
Pressure gradient source: uncorrected Ubar = 0.020188, pressure gradient = 6.66691e-06
DILUPBiCGStab:  Solving for omega, Initial residual = 5.29652e-07, Final residual = 6.33389e-11, No Iterations 3
DILUPBiCGStab:  Solving for k, Initial residual = 0.0012577, Final residual = 2.93664e-11, No Iterations 6
ExecutionTime = 0.22 s  ClockTime = 1 s

Time = 12

DILUPBiCGStab:  Solving for Ux, Initial residual = 0.000114782, Final residual = 2.06213e-11, No Iterations 5
DILUPBiCGStab:  Solving for Uy, Initial residual = 0.000274637, Final residual = 4.33943e-11, No Iterations 6
Pressure gradient source: uncorrected Ubar = 0.020188, pressure gradient = 6.66856e-06
GAMG:  Solving for p, Initial residual = 0.00181744, Final residual = 7.21267e-05, No Iterations 3
GAMG:  Solving for p, Initial residual = 0.00041701, Final residual = 1.19157e-05, No Iterations 3
time step continuity errors : sum local = 1.95285e-09, global = 3.22715e-20, cumulative = 8.32871e-17
Pressure gradient source: uncorrected Ubar = 0.020188, pressure gradient = 6.67647e-06
DILUPBiCGStab:  Solving for omega, Initial residual = 5.30581e-07, Final residual = 6.5555e-11, No Iterations 3
DILUPBiCGStab:  Solving for k, Initial residual = 0.00125416, Final residual = 3.43328e-11, No Iterations 6
ExecutionTime = 0.24 s  ClockTime = 1 s

Time = 13

DILUPBiCGStab:  Solving for Ux, Initial residual = 0.000114927, Final residual = 2.07936e-11, No Iterations 5
DILUPBiCGStab:  Solving for Uy, Initial residual = 0.00027737, Final residual = 4.74885e-11, No Iterations 6
Pressure gradient source: uncorrected Ubar = 0.020188, pressure gradient = 6.6821e-06
GAMG:  Solving for p, Initial residual = 0.00165579, Final residual = 7.06233e-05, No Iterations 3
GAMG:  Solving for p, Initial residual = 0.000399503, Final residual = 1.1833e-05, No Iterations 3
time step continuity errors : sum local = 1.91572e-09, global = 8.42786e-20, cumulative = 8.33714e-17
Pressure gradient source: uncorrected Ubar = 0.020188, pressure gradient = 6.68535e-06
DILUPBiCGStab:  Solving for omega, Initial residual = 5.29876e-07, Final residual = 6.76877e-11, No Iterations 3
DILUPBiCGStab:  Solving for k, Initial residual = 0.00125068, Final residual = 4.10077e-11, No Iterations 6
ExecutionTime = 0.25 s  ClockTime = 1 s

Time = 14

DILUPBiCGStab:  Solving for Ux, Initial residual = 0.000115083, Final residual = 2.09479e-11, No Iterations 5
DILUPBiCGStab:  Solving for Uy, Initial residual = 0.000280096, Final residual = 6.97297e-11, No Iterations 5
Pressure gradient source: uncorrected Ubar = 0.020188, pressure gradient = 6.69552e-06
GAMG:  Solving for p, Initial residual = 0.00153354, Final residual = 6.9577e-05, No Iterations 3
GAMG:  Solving for p, Initial residual = 0.000385257, Final residual = 1.1706e-05, No Iterations 3
time step continuity errors : sum local = 1.86225e-09, global = 7.83586e-20, cumulative = 8.34497e-17
Pressure gradient source: uncorrected Ubar = 0.020188, pressure gradient = 6.69567e-06
DILUPBiCGStab:  Solving for omega, Initial residual = 5.27954e-07, Final residual = 7.00924e-11, No Iterations 3
DILUPBiCGStab:  Solving for k, Initial residual = 0.00124726, Final residual = 4.94133e-11, No Iterations 6
ExecutionTime = 0.27 s  ClockTime = 1 s

Time = 15

DILUPBiCGStab:  Solving for Ux, Initial residual = 0.000115256, Final residual = 2.1076e-11, No Iterations 5
DILUPBiCGStab:  Solving for Uy, Initial residual = 0.000282896, Final residual = 9.71237e-11, No Iterations 5
Pressure gradient source: uncorrected Ubar = 0.020188, pressure gradient = 6.70567e-06
GAMG:  Solving for p, Initial residual = 0.00143791, Final residual = 6.88525e-05, No Iterations 3
GAMG:  Solving for p, Initial residual = 0.000374406, Final residual = 1.15857e-05, No Iterations 3
time step continuity errors : sum local = 1.83356e-09, global = -1.04676e-19, cumulative = 8.33451e-17
Pressure gradient source: uncorrected Ubar = 0.020188, pressure gradient = 6.70653e-06
DILUPBiCGStab:  Solving for omega, Initial residual = 5.25083e-07, Final residual = 7.20846e-11, No Iterations 3
DILUPBiCGStab:  Solving for k, Initial residual = 0.00124389, Final residual = 6.16114e-11, No Iterations 6
ExecutionTime = 0.29 s  ClockTime = 1 s

Time = 16

DILUPBiCGStab:  Solving for Ux, Initial residual = 0.000115442, Final residual = 2.1166e-11, No Iterations 5
DILUPBiCGStab:  Solving for Uy, Initial residual = 0.000285793, Final residual = 2.79318e-11, No Iterations 6
Pressure gradient source: uncorrected Ubar = 0.020188, pressure gradient = 6.71498e-06
GAMG:  Solving for p, Initial residual = 0.00136237, Final residual = 6.80408e-05, No Iterations 3
GAMG:  Solving for p, Initial residual = 0.000364758, Final residual = 1.14768e-05, No Iterations 3
time step continuity errors : sum local = 1.83354e-09, global = -3.60431e-20, cumulative = 8.3309e-17
Pressure gradient source: uncorrected Ubar = 0.020188, pressure gradient = 6.71698e-06
DILUPBiCGStab:  Solving for omega, Initial residual = 5.2155e-07, Final residual = 7.36321e-11, No Iterations 3
DILUPBiCGStab:  Solving for k, Initial residual = 0.00124057, Final residual = 8.09782e-11, No Iterations 6
ExecutionTime = 0.31 s  ClockTime = 1 s

Time = 17

DILUPBiCGStab:  Solving for Ux, Initial residual = 0.000115621, Final residual = 2.12207e-11, No Iterations 5
DILUPBiCGStab:  Solving for Uy, Initial residual = 0.000288781, Final residual = 6.27985e-11, No Iterations 6
Pressure gradient source: uncorrected Ubar = 0.020188, pressure gradient = 6.725e-06
GAMG:  Solving for p, Initial residual = 0.00130165, Final residual = 3.24842e-05, No Iterations 4
GAMG:  Solving for p, Initial residual = 0.000340297, Final residual = 1.3573e-05, No Iterations 3
time step continuity errors : sum local = 2.16458e-09, global = 2.31175e-19, cumulative = 8.35402e-17
Pressure gradient source: uncorrected Ubar = 0.020188, pressure gradient = 6.72679e-06
DILUPBiCGStab:  Solving for omega, Initial residual = 5.17468e-07, Final residual = 7.48988e-11, No Iterations 3
DILUPBiCGStab:  Solving for k, Initial residual = 0.00123731, Final residual = 3.70135e-12, No Iterations 7
ExecutionTime = 0.33 s  ClockTime = 1 s

Time = 18

DILUPBiCGStab:  Solving for Ux, Initial residual = 0.000115803, Final residual = 2.12882e-11, No Iterations 5
DILUPBiCGStab:  Solving for Uy, Initial residual = 0.000291817, Final residual = 3.5841e-11, No Iterations 6
Pressure gradient source: uncorrected Ubar = 0.020188, pressure gradient = 6.73562e-06
GAMG:  Solving for p, Initial residual = 0.00125644, Final residual = 3.00669e-05, No Iterations 4
GAMG:  Solving for p, Initial residual = 0.00033092, Final residual = 1.24349e-05, No Iterations 3
time step continuity errors : sum local = 2.00935e-09, global = -1.98848e-20, cumulative = 8.35203e-17
Pressure gradient source: uncorrected Ubar = 0.020188, pressure gradient = 6.73702e-06
DILUPBiCGStab:  Solving for omega, Initial residual = 5.12843e-07, Final residual = 7.59859e-11, No Iterations 3
DILUPBiCGStab:  Solving for k, Initial residual = 0.0012341, Final residual = 4.25076e-12, No Iterations 7
ExecutionTime = 0.34 s  ClockTime = 1 s

Time = 19

DILUPBiCGStab:  Solving for Ux, Initial residual = 0.000115977, Final residual = 2.13373e-11, No Iterations 5
DILUPBiCGStab:  Solving for Uy, Initial residual = 0.00029491, Final residual = 3.09642e-11, No Iterations 6
Pressure gradient source: uncorrected Ubar = 0.020188, pressure gradient = 6.74496e-06
GAMG:  Solving for p, Initial residual = 0.00121559, Final residual = 2.95725e-05, No Iterations 4
GAMG:  Solving for p, Initial residual = 0.00032496, Final residual = 1.24431e-05, No Iterations 3
time step continuity errors : sum local = 2.009e-09, global = -1.29113e-19, cumulative = 8.33912e-17
Pressure gradient source: uncorrected Ubar = 0.020188, pressure gradient = 6.74695e-06
DILUPBiCGStab:  Solving for omega, Initial residual = 5.07803e-07, Final residual = 7.69264e-11, No Iterations 3
DILUPBiCGStab:  Solving for k, Initial residual = 0.00123093, Final residual = 5.58075e-12, No Iterations 7
ExecutionTime = 0.36 s  ClockTime = 1 s

Time = 20

DILUPBiCGStab:  Solving for Ux, Initial residual = 0.000116152, Final residual = 2.13744e-11, No Iterations 5
DILUPBiCGStab:  Solving for Uy, Initial residual = 0.000298054, Final residual = 2.93732e-11, No Iterations 6
Pressure gradient source: uncorrected Ubar = 0.020188, pressure gradient = 6.75445e-06
GAMG:  Solving for p, Initial residual = 0.0011756, Final residual = 2.92484e-05, No Iterations 4
GAMG:  Solving for p, Initial residual = 0.000317744, Final residual = 1.23131e-05, No Iterations 3
time step continuity errors : sum local = 1.98334e-09, global = -3.68046e-19, cumulative = 8.30231e-17
Pressure gradient source: uncorrected Ubar = 0.020188, pressure gradient = 6.75665e-06
DILUPBiCGStab:  Solving for omega, Initial residual = 5.02486e-07, Final residual = 7.76958e-11, No Iterations 3
DILUPBiCGStab:  Solving for k, Initial residual = 0.0012278, Final residual = 9.07792e-12, No Iterations 7
ExecutionTime = 0.37 s  ClockTime = 1 s

Time = 21

DILUPBiCGStab:  Solving for Ux, Initial residual = 0.000116325, Final residual = 2.13968e-11, No Iterations 5
DILUPBiCGStab:  Solving for Uy, Initial residual = 0.000301209, Final residual = 2.89667e-11, No Iterations 6
Pressure gradient source: uncorrected Ubar = 0.020188, pressure gradient = 6.76384e-06
GAMG:  Solving for p, Initial residual = 0.00114365, Final residual = 2.90111e-05, No Iterations 4
GAMG:  Solving for p, Initial residual = 0.000311498, Final residual = 1.21923e-05, No Iterations 3
time step continuity errors : sum local = 1.9584e-09, global = -1.34087e-19, cumulative = 8.28891e-17
Pressure gradient source: uncorrected Ubar = 0.020188, pressure gradient = 6.76616e-06
DILUPBiCGStab:  Solving for omega, Initial residual = 4.97099e-07, Final residual = 7.80376e-11, No Iterations 3
DILUPBiCGStab:  Solving for k, Initial residual = 0.00122471, Final residual = 7.03022e-11, No Iterations 6
ExecutionTime = 0.39 s  ClockTime = 1 s

Time = 22

DILUPBiCGStab:  Solving for Ux, Initial residual = 0.000116505, Final residual = 2.14289e-11, No Iterations 5
DILUPBiCGStab:  Solving for Uy, Initial residual = 0.00030437, Final residual = 2.94782e-11, No Iterations 6
Pressure gradient source: uncorrected Ubar = 0.020188, pressure gradient = 6.77301e-06
GAMG:  Solving for p, Initial residual = 0.00111672, Final residual = 2.87951e-05, No Iterations 4
GAMG:  Solving for p, Initial residual = 0.000305986, Final residual = 1.20845e-05, No Iterations 3
time step continuity errors : sum local = 1.93719e-09, global = -9.9283e-20, cumulative = 8.27898e-17
Pressure gradient source: uncorrected Ubar = 0.020188, pressure gradient = 6.77555e-06
DILUPBiCGStab:  Solving for omega, Initial residual = 4.9184e-07, Final residual = 7.82428e-11, No Iterations 3
DILUPBiCGStab:  Solving for k, Initial residual = 0.00122165, Final residual = 3.62673e-11, No Iterations 6
ExecutionTime = 0.41 s  ClockTime = 1 s

Time = 23

DILUPBiCGStab:  Solving for Ux, Initial residual = 0.000116683, Final residual = 2.14812e-11, No Iterations 5
DILUPBiCGStab:  Solving for Uy, Initial residual = 0.000307555, Final residual = 3.08454e-11, No Iterations 6
Pressure gradient source: uncorrected Ubar = 0.020188, pressure gradient = 6.78187e-06
GAMG:  Solving for p, Initial residual = 0.0010902, Final residual = 2.85964e-05, No Iterations 4
GAMG:  Solving for p, Initial residual = 0.0003008, Final residual = 1.20173e-05, No Iterations 3
time step continuity errors : sum local = 1.92238e-09, global = 1.47725e-19, cumulative = 8.29375e-17
Pressure gradient source: uncorrected Ubar = 0.020188, pressure gradient = 6.78475e-06
DILUPBiCGStab:  Solving for omega, Initial residual = 4.86674e-07, Final residual = 7.81442e-11, No Iterations 3
DILUPBiCGStab:  Solving for k, Initial residual = 0.00121863, Final residual = 1.99065e-11, No Iterations 6
ExecutionTime = 0.42 s  ClockTime = 1 s

Time = 24

DILUPBiCGStab:  Solving for Ux, Initial residual = 0.00011687, Final residual = 2.15545e-11, No Iterations 5
DILUPBiCGStab:  Solving for Uy, Initial residual = 0.000310748, Final residual = 3.31916e-11, No Iterations 6
Pressure gradient source: uncorrected Ubar = 0.020188, pressure gradient = 6.79053e-06
GAMG:  Solving for p, Initial residual = 0.0010666, Final residual = 2.84254e-05, No Iterations 4
GAMG:  Solving for p, Initial residual = 0.000295773, Final residual = 1.19544e-05, No Iterations 3
time step continuity errors : sum local = 1.90834e-09, global = -6.21351e-20, cumulative = 8.28754e-17
Pressure gradient source: uncorrected Ubar = 0.020188, pressure gradient = 6.79373e-06
DILUPBiCGStab:  Solving for omega, Initial residual = 4.81569e-07, Final residual = 7.77451e-11, No Iterations 3
DILUPBiCGStab:  Solving for k, Initial residual = 0.00121564, Final residual = 6.61195e-11, No Iterations 6
ExecutionTime = 0.44 s  ClockTime = 1 s

Time = 25

DILUPBiCGStab:  Solving for Ux, Initial residual = 0.000117056, Final residual = 2.16599e-11, No Iterations 5
DILUPBiCGStab:  Solving for Uy, Initial residual = 0.000313941, Final residual = 3.67646e-11, No Iterations 6
Pressure gradient source: uncorrected Ubar = 0.020188, pressure gradient = 6.79908e-06
GAMG:  Solving for p, Initial residual = 0.00105048, Final residual = 2.82747e-05, No Iterations 4
GAMG:  Solving for p, Initial residual = 0.000291197, Final residual = 1.19026e-05, No Iterations 3
time step continuity errors : sum local = 1.8964e-09, global = -2.06442e-19, cumulative = 8.26689e-17
Pressure gradient source: uncorrected Ubar = 0.020188, pressure gradient = 6.80254e-06
DILUPBiCGStab:  Solving for omega, Initial residual = 4.76538e-07, Final residual = 7.7319e-11, No Iterations 3
DILUPBiCGStab:  Solving for k, Initial residual = 0.00121267, Final residual = 4.92017e-11, No Iterations 6
ExecutionTime = 0.45 s  ClockTime = 1 s

Time = 26

DILUPBiCGStab:  Solving for Ux, Initial residual = 0.000117236, Final residual = 2.18267e-11, No Iterations 5
DILUPBiCGStab:  Solving for Uy, Initial residual = 0.000317122, Final residual = 4.19796e-11, No Iterations 6
Pressure gradient source: uncorrected Ubar = 0.020188, pressure gradient = 6.80741e-06
GAMG:  Solving for p, Initial residual = 0.00103639, Final residual = 2.81295e-05, No Iterations 4
GAMG:  Solving for p, Initial residual = 0.000287081, Final residual = 1.18698e-05, No Iterations 3
time step continuity errors : sum local = 1.88772e-09, global = 2.01982e-20, cumulative = 8.26891e-17
Pressure gradient source: uncorrected Ubar = 0.020188, pressure gradient = 6.81118e-06
DILUPBiCGStab:  Solving for omega, Initial residual = 4.71562e-07, Final residual = 7.68622e-11, No Iterations 3
DILUPBiCGStab:  Solving for k, Initial residual = 0.00120974, Final residual = 5.47133e-11, No Iterations 6
ExecutionTime = 0.47 s  ClockTime = 1 s

Time = 27

DILUPBiCGStab:  Solving for Ux, Initial residual = 0.000117415, Final residual = 2.2203e-11, No Iterations 5
DILUPBiCGStab:  Solving for Uy, Initial residual = 0.000320301, Final residual = 4.9594e-11, No Iterations 6
Pressure gradient source: uncorrected Ubar = 0.020188, pressure gradient = 6.81552e-06
GAMG:  Solving for p, Initial residual = 0.001021, Final residual = 2.80069e-05, No Iterations 4
GAMG:  Solving for p, Initial residual = 0.000282915, Final residual = 1.18458e-05, No Iterations 3
time step continuity errors : sum local = 1.88071e-09, global = -3.9749e-20, cumulative = 8.26494e-17
Pressure gradient source: uncorrected Ubar = 0.020188, pressure gradient = 6.81966e-06
DILUPBiCGStab:  Solving for omega, Initial residual = 4.6668e-07, Final residual = 7.63248e-11, No Iterations 3
DILUPBiCGStab:  Solving for k, Initial residual = 0.00120682, Final residual = 6.59183e-11, No Iterations 6
ExecutionTime = 0.49 s  ClockTime = 1 s

Time = 28

DILUPBiCGStab:  Solving for Ux, Initial residual = 0.000117592, Final residual = 2.288e-11, No Iterations 5
DILUPBiCGStab:  Solving for Uy, Initial residual = 0.00032348, Final residual = 6.13508e-11, No Iterations 6
Pressure gradient source: uncorrected Ubar = 0.020188, pressure gradient = 6.82346e-06
GAMG:  Solving for p, Initial residual = 0.00100519, Final residual = 2.79164e-05, No Iterations 4
GAMG:  Solving for p, Initial residual = 0.000278953, Final residual = 1.18231e-05, No Iterations 3
time step continuity errors : sum local = 1.87391e-09, global = 2.81556e-19, cumulative = 8.29309e-17
Pressure gradient source: uncorrected Ubar = 0.020188, pressure gradient = 6.82796e-06
DILUPBiCGStab:  Solving for omega, Initial residual = 4.61945e-07, Final residual = 7.58313e-11, No Iterations 3
DILUPBiCGStab:  Solving for k, Initial residual = 0.00120392, Final residual = 7.61298e-11, No Iterations 6
ExecutionTime = 0.5 s  ClockTime = 1 s

Time = 29

DILUPBiCGStab:  Solving for Ux, Initial residual = 0.000117767, Final residual = 2.37638e-11, No Iterations 5
DILUPBiCGStab:  Solving for Uy, Initial residual = 0.000326638, Final residual = 8.07297e-11, No Iterations 6
Pressure gradient source: uncorrected Ubar = 0.020188, pressure gradient = 6.83124e-06
GAMG:  Solving for p, Initial residual = 0.000987297, Final residual = 2.78591e-05, No Iterations 4
GAMG:  Solving for p, Initial residual = 0.000275154, Final residual = 1.18009e-05, No Iterations 3
time step continuity errors : sum local = 1.86729e-09, global = -5.89936e-20, cumulative = 8.28719e-17
Pressure gradient source: uncorrected Ubar = 0.020188, pressure gradient = 6.83609e-06
DILUPBiCGStab:  Solving for omega, Initial residual = 4.57297e-07, Final residual = 7.55035e-11, No Iterations 3
DILUPBiCGStab:  Solving for k, Initial residual = 0.00120104, Final residual = 8.47765e-11, No Iterations 6
ExecutionTime = 0.52 s  ClockTime = 1 s

Time = 30

DILUPBiCGStab:  Solving for Ux, Initial residual = 0.000117943, Final residual = 2.49482e-11, No Iterations 5
DILUPBiCGStab:  Solving for Uy, Initial residual = 0.000329794, Final residual = 2.48732e-11, No Iterations 6
Pressure gradient source: uncorrected Ubar = 0.020188, pressure gradient = 6.83886e-06
GAMG:  Solving for p, Initial residual = 0.000975232, Final residual = 2.78408e-05, No Iterations 4
GAMG:  Solving for p, Initial residual = 0.000271872, Final residual = 1.17851e-05, No Iterations 3
time step continuity errors : sum local = 1.86204e-09, global = 3.70302e-20, cumulative = 8.2909e-17
Pressure gradient source: uncorrected Ubar = 0.020188, pressure gradient = 6.84407e-06
DILUPBiCGStab:  Solving for omega, Initial residual = 4.52781e-07, Final residual = 7.51532e-11, No Iterations 3
DILUPBiCGStab:  Solving for k, Initial residual = 0.00119817, Final residual = 9.19017e-11, No Iterations 6
ExecutionTime = 0.54 s  ClockTime = 1 s

Time = 31

DILUPBiCGStab:  Solving for Ux, Initial residual = 0.000118122, Final residual = 2.64193e-11, No Iterations 5
DILUPBiCGStab:  Solving for Uy, Initial residual = 0.000332965, Final residual = 4.46879e-11, No Iterations 6
Pressure gradient source: uncorrected Ubar = 0.020188, pressure gradient = 6.84632e-06
GAMG:  Solving for p, Initial residual = 0.000966524, Final residual = 2.78519e-05, No Iterations 4
GAMG:  Solving for p, Initial residual = 0.000268962, Final residual = 1.1773e-05, No Iterations 3
time step continuity errors : sum local = 1.85764e-09, global = -2.03619e-19, cumulative = 8.27053e-17
Pressure gradient source: uncorrected Ubar = 0.020188, pressure gradient = 6.85191e-06
DILUPBiCGStab:  Solving for omega, Initial residual = 4.48331e-07, Final residual = 7.48935e-11, No Iterations 3
DILUPBiCGStab:  Solving for k, Initial residual = 0.00119532, Final residual = 9.74733e-11, No Iterations 6
ExecutionTime = 0.55 s  ClockTime = 1 s

Time = 32

DILUPBiCGStab:  Solving for Ux, Initial residual = 0.0001183, Final residual = 2.80336e-11, No Iterations 5
DILUPBiCGStab:  Solving for Uy, Initial residual = 0.00033616, Final residual = 8.16654e-13, No Iterations 7
Pressure gradient source: uncorrected Ubar = 0.020188, pressure gradient = 6.85361e-06
GAMG:  Solving for p, Initial residual = 0.000959926, Final residual = 2.78975e-05, No Iterations 4
GAMG:  Solving for p, Initial residual = 0.000266092, Final residual = 1.17501e-05, No Iterations 3
time step continuity errors : sum local = 1.85178e-09, global = 2.08749e-19, cumulative = 8.29141e-17
Pressure gradient source: uncorrected Ubar = 0.020188, pressure gradient = 6.8596e-06
DILUPBiCGStab:  Solving for omega, Initial residual = 4.43977e-07, Final residual = 7.46467e-11, No Iterations 3
DILUPBiCGStab:  Solving for k, Initial residual = 0.00119248, Final residual = 2.84166e-11, No Iterations 6
ExecutionTime = 0.57 s  ClockTime = 1 s

Time = 33

DILUPBiCGStab:  Solving for Ux, Initial residual = 0.000118475, Final residual = 2.97492e-11, No Iterations 5
DILUPBiCGStab:  Solving for Uy, Initial residual = 0.000339322, Final residual = 8.4626e-13, No Iterations 7
Pressure gradient source: uncorrected Ubar = 0.020188, pressure gradient = 6.86078e-06
GAMG:  Solving for p, Initial residual = 0.00095261, Final residual = 2.79626e-05, No Iterations 4
GAMG:  Solving for p, Initial residual = 0.000263153, Final residual = 1.17186e-05, No Iterations 3
time step continuity errors : sum local = 1.84479e-09, global = -7.73422e-20, cumulative = 8.28368e-17
Pressure gradient source: uncorrected Ubar = 0.020188, pressure gradient = 6.86716e-06
DILUPBiCGStab:  Solving for omega, Initial residual = 4.39718e-07, Final residual = 7.44093e-11, No Iterations 3
DILUPBiCGStab:  Solving for k, Initial residual = 0.00118966, Final residual = 2.99086e-11, No Iterations 6
ExecutionTime = 0.58 s  ClockTime = 1 s

Time = 34

DILUPBiCGStab:  Solving for Ux, Initial residual = 0.000118647, Final residual = 3.15488e-11, No Iterations 5
DILUPBiCGStab:  Solving for Uy, Initial residual = 0.000342438, Final residual = 7.55836e-11, No Iterations 6
Pressure gradient source: uncorrected Ubar = 0.020188, pressure gradient = 6.8678e-06
GAMG:  Solving for p, Initial residual = 0.000943724, Final residual = 2.80325e-05, No Iterations 4
GAMG:  Solving for p, Initial residual = 0.000260196, Final residual = 1.16772e-05, No Iterations 3
time step continuity errors : sum local = 1.83633e-09, global = -1.26979e-19, cumulative = 8.27098e-17
Pressure gradient source: uncorrected Ubar = 0.020188, pressure gradient = 6.87459e-06
DILUPBiCGStab:  Solving for omega, Initial residual = 4.35556e-07, Final residual = 7.42239e-11, No Iterations 3
DILUPBiCGStab:  Solving for k, Initial residual = 0.00118684, Final residual = 3.10958e-11, No Iterations 6
ExecutionTime = 0.59 s  ClockTime = 1 s

Time = 35

DILUPBiCGStab:  Solving for Ux, Initial residual = 0.000118817, Final residual = 3.34107e-11, No Iterations 5
DILUPBiCGStab:  Solving for Uy, Initial residual = 0.000345523, Final residual = 4.80413e-11, No Iterations 6
Pressure gradient source: uncorrected Ubar = 0.020188, pressure gradient = 6.87469e-06
GAMG:  Solving for p, Initial residual = 0.000934824, Final residual = 2.809e-05, No Iterations 4
GAMG:  Solving for p, Initial residual = 0.000257251, Final residual = 1.16252e-05, No Iterations 3
time step continuity errors : sum local = 1.82617e-09, global = 1.56321e-19, cumulative = 8.28661e-17
Pressure gradient source: uncorrected Ubar = 0.020188, pressure gradient = 6.8819e-06
DILUPBiCGStab:  Solving for omega, Initial residual = 4.31538e-07, Final residual = 7.39878e-11, No Iterations 3
DILUPBiCGStab:  Solving for k, Initial residual = 0.00118403, Final residual = 3.21133e-11, No Iterations 6
ExecutionTime = 0.61 s  ClockTime = 1 s

Time = 36

DILUPBiCGStab:  Solving for Ux, Initial residual = 0.000118982, Final residual = 3.52868e-11, No Iterations 5
DILUPBiCGStab:  Solving for Uy, Initial residual = 0.000348567, Final residual = 3.74323e-11, No Iterations 6
Pressure gradient source: uncorrected Ubar = 0.020188, pressure gradient = 6.88147e-06
GAMG:  Solving for p, Initial residual = 0.00092568, Final residual = 2.815e-05, No Iterations 4
GAMG:  Solving for p, Initial residual = 0.000254619, Final residual = 1.15552e-05, No Iterations 3
time step continuity errors : sum local = 1.81364e-09, global = -1.15987e-20, cumulative = 8.28545e-17
Pressure gradient source: uncorrected Ubar = 0.020188, pressure gradient = 6.8891e-06
DILUPBiCGStab:  Solving for omega, Initial residual = 4.27682e-07, Final residual = 7.37688e-11, No Iterations 3
DILUPBiCGStab:  Solving for k, Initial residual = 0.00118123, Final residual = 3.28649e-11, No Iterations 6
ExecutionTime = 0.62 s  ClockTime = 1 s

Time = 37

DILUPBiCGStab:  Solving for Ux, Initial residual = 0.000119147, Final residual = 3.71306e-11, No Iterations 5
DILUPBiCGStab:  Solving for Uy, Initial residual = 0.000351587, Final residual = 3.2152e-11, No Iterations 6
Pressure gradient source: uncorrected Ubar = 0.020188, pressure gradient = 6.88813e-06
GAMG:  Solving for p, Initial residual = 0.000920442, Final residual = 2.98025e-05, No Iterations 4
GAMG:  Solving for p, Initial residual = 0.000253536, Final residual = 1.21834e-05, No Iterations 3
time step continuity errors : sum local = 1.9041e-09, global = 1.43529e-19, cumulative = 8.2998e-17
Pressure gradient source: uncorrected Ubar = 0.020188, pressure gradient = 6.89609e-06
DILUPBiCGStab:  Solving for omega, Initial residual = 4.23954e-07, Final residual = 7.36448e-11, No Iterations 3
DILUPBiCGStab:  Solving for k, Initial residual = 0.00117843, Final residual = 3.3233e-11, No Iterations 6
ExecutionTime = 0.64 s  ClockTime = 1 s

Time = 38

DILUPBiCGStab:  Solving for Ux, Initial residual = 0.000119308, Final residual = 3.89461e-11, No Iterations 5
DILUPBiCGStab:  Solving for Uy, Initial residual = 0.000354548, Final residual = 2.95541e-11, No Iterations 6
Pressure gradient source: uncorrected Ubar = 0.020188, pressure gradient = 6.89481e-06
GAMG:  Solving for p, Initial residual = 0.000916209, Final residual = 3.02313e-05, No Iterations 4
GAMG:  Solving for p, Initial residual = 0.000251096, Final residual = 1.19226e-05, No Iterations 3
time step continuity errors : sum local = 1.86463e-09, global = 1.21248e-20, cumulative = 8.30101e-17
Pressure gradient source: uncorrected Ubar = 0.020188, pressure gradient = 6.90322e-06
DILUPBiCGStab:  Solving for omega, Initial residual = 4.20338e-07, Final residual = 7.35108e-11, No Iterations 3
DILUPBiCGStab:  Solving for k, Initial residual = 0.00117564, Final residual = 3.32129e-11, No Iterations 6
ExecutionTime = 0.65 s  ClockTime = 1 s

Time = 39

DILUPBiCGStab:  Solving for Ux, Initial residual = 0.000119466, Final residual = 4.06809e-11, No Iterations 5
DILUPBiCGStab:  Solving for Uy, Initial residual = 0.000357447, Final residual = 2.81618e-11, No Iterations 6
Pressure gradient source: uncorrected Ubar = 0.020188, pressure gradient = 6.901e-06
GAMG:  Solving for p, Initial residual = 0.000912297, Final residual = 3.04582e-05, No Iterations 4
GAMG:  Solving for p, Initial residual = 0.000248964, Final residual = 1.17179e-05, No Iterations 3
time step continuity errors : sum local = 1.83256e-09, global = 2.97331e-20, cumulative = 8.30399e-17
Pressure gradient source: uncorrected Ubar = 0.020188, pressure gradient = 6.91016e-06
DILUPBiCGStab:  Solving for omega, Initial residual = 4.16814e-07, Final residual = 7.33549e-11, No Iterations 3
DILUPBiCGStab:  Solving for k, Initial residual = 0.00117286, Final residual = 9.86671e-11, No Iterations 6
ExecutionTime = 0.67 s  ClockTime = 1 s

Time = 40

DILUPBiCGStab:  Solving for Ux, Initial residual = 0.000119614, Final residual = 4.23547e-11, No Iterations 5
DILUPBiCGStab:  Solving for Uy, Initial residual = 0.000360274, Final residual = 2.74332e-11, No Iterations 6
Pressure gradient source: uncorrected Ubar = 0.020188, pressure gradient = 6.90734e-06
GAMG:  Solving for p, Initial residual = 0.00090512, Final residual = 3.05673e-05, No Iterations 4
GAMG:  Solving for p, Initial residual = 0.000246364, Final residual = 1.15061e-05, No Iterations 3
time step continuity errors : sum local = 1.79922e-09, global = 7.65689e-20, cumulative = 8.31164e-17
Pressure gradient source: uncorrected Ubar = 0.020188, pressure gradient = 6.91692e-06
DILUPBiCGStab:  Solving for omega, Initial residual = 4.13456e-07, Final residual = 7.32224e-11, No Iterations 3
DILUPBiCGStab:  Solving for k, Initial residual = 0.00117008, Final residual = 9.59088e-11, No Iterations 6
ExecutionTime = 0.68 s  ClockTime = 1 s

Time = 41

DILUPBiCGStab:  Solving for Ux, Initial residual = 0.000119757, Final residual = 4.39785e-11, No Iterations 5
DILUPBiCGStab:  Solving for Uy, Initial residual = 0.000363062, Final residual = 2.71934e-11, No Iterations 6
Pressure gradient source: uncorrected Ubar = 0.020188, pressure gradient = 6.91373e-06
GAMG:  Solving for p, Initial residual = 0.000898884, Final residual = 3.06184e-05, No Iterations 4
GAMG:  Solving for p, Initial residual = 0.000243835, Final residual = 1.1302e-05, No Iterations 3
time step continuity errors : sum local = 1.76689e-09, global = -5.70666e-20, cumulative = 8.30594e-17
Pressure gradient source: uncorrected Ubar = 0.020188, pressure gradient = 6.92363e-06
DILUPBiCGStab:  Solving for omega, Initial residual = 4.10262e-07, Final residual = 7.30753e-11, No Iterations 3
DILUPBiCGStab:  Solving for k, Initial residual = 0.0011673, Final residual = 9.33052e-11, No Iterations 6
ExecutionTime = 0.7 s  ClockTime = 1 s

Time = 42

DILUPBiCGStab:  Solving for Ux, Initial residual = 0.000119901, Final residual = 4.5544e-11, No Iterations 5
DILUPBiCGStab:  Solving for Uy, Initial residual = 0.00036586, Final residual = 2.73863e-11, No Iterations 6
Pressure gradient source: uncorrected Ubar = 0.020188, pressure gradient = 6.91994e-06
GAMG:  Solving for p, Initial residual = 0.000894471, Final residual = 3.05933e-05, No Iterations 4
GAMG:  Solving for p, Initial residual = 0.000241508, Final residual = 1.11038e-05, No Iterations 3
time step continuity errors : sum local = 1.73534e-09, global = 6.94449e-20, cumulative = 8.31288e-17
Pressure gradient source: uncorrected Ubar = 0.020188, pressure gradient = 6.9303e-06
DILUPBiCGStab:  Solving for omega, Initial residual = 4.07235e-07, Final residual = 7.29118e-11, No Iterations 3
DILUPBiCGStab:  Solving for k, Initial residual = 0.00116453, Final residual = 9.11142e-11, No Iterations 6
ExecutionTime = 0.72 s  ClockTime = 1 s

Time = 43

DILUPBiCGStab:  Solving for Ux, Initial residual = 0.000120044, Final residual = 4.70483e-11, No Iterations 5
DILUPBiCGStab:  Solving for Uy, Initial residual = 0.000368604, Final residual = 2.79297e-11, No Iterations 6
Pressure gradient source: uncorrected Ubar = 0.020188, pressure gradient = 6.92601e-06
GAMG:  Solving for p, Initial residual = 0.000887995, Final residual = 3.06022e-05, No Iterations 4
GAMG:  Solving for p, Initial residual = 0.000239076, Final residual = 1.09023e-05, No Iterations 3
time step continuity errors : sum local = 1.70337e-09, global = -6.81291e-20, cumulative = 8.30607e-17
Pressure gradient source: uncorrected Ubar = 0.020188, pressure gradient = 6.93691e-06
DILUPBiCGStab:  Solving for omega, Initial residual = 4.04356e-07, Final residual = 7.27163e-11, No Iterations 3
DILUPBiCGStab:  Solving for k, Initial residual = 0.00116175, Final residual = 8.91091e-11, No Iterations 6
ExecutionTime = 0.74 s  ClockTime = 1 s

Time = 44

DILUPBiCGStab:  Solving for Ux, Initial residual = 0.000120184, Final residual = 4.84665e-11, No Iterations 5
DILUPBiCGStab:  Solving for Uy, Initial residual = 0.00037128, Final residual = 2.87285e-11, No Iterations 6
Pressure gradient source: uncorrected Ubar = 0.020188, pressure gradient = 6.932e-06
GAMG:  Solving for p, Initial residual = 0.000880796, Final residual = 3.06778e-05, No Iterations 4
GAMG:  Solving for p, Initial residual = 0.000236608, Final residual = 1.07025e-05, No Iterations 3
time step continuity errors : sum local = 1.6718e-09, global = -2.34784e-19, cumulative = 8.28259e-17
Pressure gradient source: uncorrected Ubar = 0.020188, pressure gradient = 6.94344e-06
DILUPBiCGStab:  Solving for omega, Initial residual = 4.01522e-07, Final residual = 7.2481e-11, No Iterations 3
DILUPBiCGStab:  Solving for k, Initial residual = 0.00115898, Final residual = 8.7768e-11, No Iterations 6
ExecutionTime = 0.76 s  ClockTime = 1 s

Time = 45

DILUPBiCGStab:  Solving for Ux, Initial residual = 0.000120319, Final residual = 4.97359e-11, No Iterations 5
DILUPBiCGStab:  Solving for Uy, Initial residual = 0.000373964, Final residual = 2.98673e-11, No Iterations 6
Pressure gradient source: uncorrected Ubar = 0.020188, pressure gradient = 6.93796e-06
GAMG:  Solving for p, Initial residual = 0.000874153, Final residual = 3.07478e-05, No Iterations 4
GAMG:  Solving for p, Initial residual = 0.000234121, Final residual = 1.05009e-05, No Iterations 3
time step continuity errors : sum local = 1.63995e-09, global = -2.79358e-19, cumulative = 8.25466e-17
Pressure gradient source: uncorrected Ubar = 0.020188, pressure gradient = 6.9499e-06
DILUPBiCGStab:  Solving for omega, Initial residual = 3.98729e-07, Final residual = 7.22403e-11, No Iterations 3
DILUPBiCGStab:  Solving for k, Initial residual = 0.0011562, Final residual = 8.6828e-11, No Iterations 6
ExecutionTime = 0.78 s  ClockTime = 1 s

Time = 46

DILUPBiCGStab:  Solving for Ux, Initial residual = 0.000120447, Final residual = 5.08774e-11, No Iterations 5
DILUPBiCGStab:  Solving for Uy, Initial residual = 0.000376693, Final residual = 3.05598e-11, No Iterations 6
Pressure gradient source: uncorrected Ubar = 0.020188, pressure gradient = 6.94387e-06
GAMG:  Solving for p, Initial residual = 0.00087087, Final residual = 3.08223e-05, No Iterations 4
GAMG:  Solving for p, Initial residual = 0.000232004, Final residual = 1.03042e-05, No Iterations 3
time step continuity errors : sum local = 1.60872e-09, global = 3.72513e-20, cumulative = 8.25838e-17
Pressure gradient source: uncorrected Ubar = 0.020188, pressure gradient = 6.95631e-06
DILUPBiCGStab:  Solving for omega, Initial residual = 3.95982e-07, Final residual = 7.20161e-11, No Iterations 3
DILUPBiCGStab:  Solving for k, Initial residual = 0.00115343, Final residual = 8.62548e-11, No Iterations 6
ExecutionTime = 0.79 s  ClockTime = 1 s

Time = 47

DILUPBiCGStab:  Solving for Ux, Initial residual = 0.000120572, Final residual = 5.19329e-11, No Iterations 5
DILUPBiCGStab:  Solving for Uy, Initial residual = 0.000379339, Final residual = 3.12519e-11, No Iterations 6
Pressure gradient source: uncorrected Ubar = 0.020188, pressure gradient = 6.9497e-06
GAMG:  Solving for p, Initial residual = 0.000868209, Final residual = 3.08968e-05, No Iterations 4
GAMG:  Solving for p, Initial residual = 0.000230032, Final residual = 1.0107e-05, No Iterations 3
time step continuity errors : sum local = 1.57727e-09, global = 7.65022e-22, cumulative = 8.25846e-17
Pressure gradient source: uncorrected Ubar = 0.020188, pressure gradient = 6.96267e-06
DILUPBiCGStab:  Solving for omega, Initial residual = 3.9327e-07, Final residual = 7.17522e-11, No Iterations 3
DILUPBiCGStab:  Solving for k, Initial residual = 0.00115066, Final residual = 8.61764e-11, No Iterations 6
ExecutionTime = 0.81 s  ClockTime = 1 s

Time = 48

DILUPBiCGStab:  Solving for Ux, Initial residual = 0.000120691, Final residual = 5.2902e-11, No Iterations 5
DILUPBiCGStab:  Solving for Uy, Initial residual = 0.000381909, Final residual = 3.20348e-11, No Iterations 6
Pressure gradient source: uncorrected Ubar = 0.020188, pressure gradient = 6.95548e-06
GAMG:  Solving for p, Initial residual = 0.000864261, Final residual = 3.09772e-05, No Iterations 4
GAMG:  Solving for p, Initial residual = 0.000227938, Final residual = 9.90556e-06, No Iterations 3
time step continuity errors : sum local = 1.54506e-09, global = -3.05478e-19, cumulative = 8.22791e-17
Pressure gradient source: uncorrected Ubar = 0.020188, pressure gradient = 6.96899e-06
DILUPBiCGStab:  Solving for omega, Initial residual = 3.9063e-07, Final residual = 7.14857e-11, No Iterations 3
DILUPBiCGStab:  Solving for k, Initial residual = 0.00114789, Final residual = 8.64815e-11, No Iterations 6
ExecutionTime = 0.82 s  ClockTime = 1 s

Time = 49

DILUPBiCGStab:  Solving for Ux, Initial residual = 0.000120807, Final residual = 5.37712e-11, No Iterations 5
DILUPBiCGStab:  Solving for Uy, Initial residual = 0.000384455, Final residual = 3.29909e-11, No Iterations 6
Pressure gradient source: uncorrected Ubar = 0.020188, pressure gradient = 6.96121e-06
GAMG:  Solving for p, Initial residual = 0.000859861, Final residual = 3.10634e-05, No Iterations 4
GAMG:  Solving for p, Initial residual = 0.000225811, Final residual = 9.70029e-06, No Iterations 3
time step continuity errors : sum local = 1.5121e-09, global = -3.15913e-19, cumulative = 8.19632e-17
Pressure gradient source: uncorrected Ubar = 0.020188, pressure gradient = 6.97526e-06
DILUPBiCGStab:  Solving for omega, Initial residual = 3.88071e-07, Final residual = 7.12225e-11, No Iterations 3
DILUPBiCGStab:  Solving for k, Initial residual = 0.00114511, Final residual = 8.73245e-11, No Iterations 6
ExecutionTime = 0.84 s  ClockTime = 1 s

Time = 50

DILUPBiCGStab:  Solving for Ux, Initial residual = 0.000120916, Final residual = 5.46202e-11, No Iterations 5
DILUPBiCGStab:  Solving for Uy, Initial residual = 0.000386943, Final residual = 3.42303e-11, No Iterations 6
Pressure gradient source: uncorrected Ubar = 0.020188, pressure gradient = 6.9669e-06
GAMG:  Solving for p, Initial residual = 0.000853844, Final residual = 3.11599e-05, No Iterations 4
GAMG:  Solving for p, Initial residual = 0.000223452, Final residual = 9.48809e-06, No Iterations 3
time step continuity errors : sum local = 1.47784e-09, global = -4.7772e-20, cumulative = 8.19154e-17
Pressure gradient source: uncorrected Ubar = 0.020188, pressure gradient = 6.98149e-06
DILUPBiCGStab:  Solving for omega, Initial residual = 3.85543e-07, Final residual = 7.09868e-11, No Iterations 3
DILUPBiCGStab:  Solving for k, Initial residual = 0.00114234, Final residual = 8.85957e-11, No Iterations 6
ExecutionTime = 0.86 s  ClockTime = 1 s

Time = 51

DILUPBiCGStab:  Solving for Ux, Initial residual = 0.000121022, Final residual = 5.53413e-11, No Iterations 5
DILUPBiCGStab:  Solving for Uy, Initial residual = 0.000389357, Final residual = 3.53951e-11, No Iterations 6
Pressure gradient source: uncorrected Ubar = 0.020188, pressure gradient = 6.97256e-06
GAMG:  Solving for p, Initial residual = 0.000850292, Final residual = 3.1262e-05, No Iterations 4
GAMG:  Solving for p, Initial residual = 0.000221408, Final residual = 8.54125e-06, No Iterations 3
time step continuity errors : sum local = 1.35754e-09, global = -3.08862e-19, cumulative = 8.16065e-17
Pressure gradient source: uncorrected Ubar = 0.020188, pressure gradient = 6.9876e-06
DILUPBiCGStab:  Solving for omega, Initial residual = 3.83042e-07, Final residual = 7.07142e-11, No Iterations 3
DILUPBiCGStab:  Solving for k, Initial residual = 0.00113957, Final residual = 9.043e-11, No Iterations 6
ExecutionTime = 0.88 s  ClockTime = 1 s

Time = 52

DILUPBiCGStab:  Solving for Ux, Initial residual = 0.000121121, Final residual = 5.59514e-11, No Iterations 5
DILUPBiCGStab:  Solving for Uy, Initial residual = 0.000391714, Final residual = 3.63995e-11, No Iterations 6
Pressure gradient source: uncorrected Ubar = 0.020188, pressure gradient = 6.97829e-06
GAMG:  Solving for p, Initial residual = 0.000847443, Final residual = 3.18043e-05, No Iterations 4
GAMG:  Solving for p, Initial residual = 0.000221569, Final residual = 8.64612e-06, No Iterations 3
time step continuity errors : sum local = 1.35882e-09, global = 1.62849e-19, cumulative = 8.17694e-17
Pressure gradient source: uncorrected Ubar = 0.020188, pressure gradient = 6.99401e-06
DILUPBiCGStab:  Solving for omega, Initial residual = 3.8062e-07, Final residual = 7.04473e-11, No Iterations 3
DILUPBiCGStab:  Solving for k, Initial residual = 0.00113681, Final residual = 9.25378e-11, No Iterations 6
ExecutionTime = 0.9 s  ClockTime = 1 s

Time = 53

DILUPBiCGStab:  Solving for Ux, Initial residual = 0.00012121, Final residual = 5.64636e-11, No Iterations 5
DILUPBiCGStab:  Solving for Uy, Initial residual = 0.000394093, Final residual = 3.71292e-11, No Iterations 6
Pressure gradient source: uncorrected Ubar = 0.020188, pressure gradient = 6.98348e-06
GAMG:  Solving for p, Initial residual = 0.000842184, Final residual = 3.19105e-05, No Iterations 4
GAMG:  Solving for p, Initial residual = 0.000218951, Final residual = 8.58511e-06, No Iterations 3
time step continuity errors : sum local = 1.33613e-09, global = -6.59644e-20, cumulative = 8.17034e-17
Pressure gradient source: uncorrected Ubar = 0.020188, pressure gradient = 7.00004e-06
DILUPBiCGStab:  Solving for omega, Initial residual = 3.7823e-07, Final residual = 7.01704e-11, No Iterations 3
DILUPBiCGStab:  Solving for k, Initial residual = 0.00113404, Final residual = 9.51065e-11, No Iterations 6
ExecutionTime = 0.92 s  ClockTime = 1 s

Time = 54

DILUPBiCGStab:  Solving for Ux, Initial residual = 0.000121294, Final residual = 5.68862e-11, No Iterations 5
DILUPBiCGStab:  Solving for Uy, Initial residual = 0.000396347, Final residual = 3.86524e-11, No Iterations 6
Pressure gradient source: uncorrected Ubar = 0.020188, pressure gradient = 6.98929e-06
GAMG:  Solving for p, Initial residual = 0.000839043, Final residual = 3.20997e-05, No Iterations 4
GAMG:  Solving for p, Initial residual = 0.000214962, Final residual = 9.32134e-06, No Iterations 3
time step continuity errors : sum local = 1.43059e-09, global = -1.21449e-19, cumulative = 8.1582e-17
Pressure gradient source: uncorrected Ubar = 0.020188, pressure gradient = 7.00601e-06
DILUPBiCGStab:  Solving for omega, Initial residual = 3.75888e-07, Final residual = 6.99264e-11, No Iterations 3
DILUPBiCGStab:  Solving for k, Initial residual = 0.00113127, Final residual = 9.78869e-11, No Iterations 6
ExecutionTime = 0.94 s  ClockTime = 1 s

Time = 55

DILUPBiCGStab:  Solving for Ux, Initial residual = 0.000121378, Final residual = 5.72315e-11, No Iterations 5
DILUPBiCGStab:  Solving for Uy, Initial residual = 0.000398543, Final residual = 4.01794e-11, No Iterations 6
Pressure gradient source: uncorrected Ubar = 0.020188, pressure gradient = 6.99499e-06
GAMG:  Solving for p, Initial residual = 0.000836935, Final residual = 3.21467e-05, No Iterations 4
GAMG:  Solving for p, Initial residual = 0.000213157, Final residual = 9.2937e-06, No Iterations 3
time step continuity errors : sum local = 1.42525e-09, global = -8.07487e-20, cumulative = 8.15012e-17
Pressure gradient source: uncorrected Ubar = 0.020188, pressure gradient = 7.01208e-06
DILUPBiCGStab:  Solving for omega, Initial residual = 3.7363e-07, Final residual = 6.97398e-11, No Iterations 3
DILUPBiCGStab:  Solving for k, Initial residual = 0.0011285, Final residual = 3.08629e-11, No Iterations 6
ExecutionTime = 0.96 s  ClockTime = 1 s

Time = 56

DILUPBiCGStab:  Solving for Ux, Initial residual = 0.000121456, Final residual = 5.75141e-11, No Iterations 5
DILUPBiCGStab:  Solving for Uy, Initial residual = 0.000400711, Final residual = 4.14196e-11, No Iterations 6
Pressure gradient source: uncorrected Ubar = 0.020188, pressure gradient = 7.00042e-06
GAMG:  Solving for p, Initial residual = 0.000833818, Final residual = 3.27183e-05, No Iterations 4
GAMG:  Solving for p, Initial residual = 0.000211882, Final residual = 9.11458e-06, No Iterations 3
time step continuity errors : sum local = 1.39517e-09, global = 5.07386e-20, cumulative = 8.1552e-17
Pressure gradient source: uncorrected Ubar = 0.020188, pressure gradient = 7.01819e-06
DILUPBiCGStab:  Solving for omega, Initial residual = 3.7144e-07, Final residual = 6.95249e-11, No Iterations 3
DILUPBiCGStab:  Solving for k, Initial residual = 0.00112573, Final residual = 3.03917e-11, No Iterations 6
ExecutionTime = 0.98 s  ClockTime = 1 s

Time = 57

DILUPBiCGStab:  Solving for Ux, Initial residual = 0.00012153, Final residual = 5.77661e-11, No Iterations 5
DILUPBiCGStab:  Solving for Uy, Initial residual = 0.000402831, Final residual = 3.9852e-11, No Iterations 6
Pressure gradient source: uncorrected Ubar = 0.020188, pressure gradient = 7.00576e-06
GAMG:  Solving for p, Initial residual = 0.000829961, Final residual = 3.3151e-05, No Iterations 4
GAMG:  Solving for p, Initial residual = 0.000210154, Final residual = 8.93629e-06, No Iterations 3
time step continuity errors : sum local = 1.36518e-09, global = 6.0846e-20, cumulative = 8.16128e-17
Pressure gradient source: uncorrected Ubar = 0.020188, pressure gradient = 7.02422e-06
DILUPBiCGStab:  Solving for omega, Initial residual = 3.69293e-07, Final residual = 6.92796e-11, No Iterations 3
DILUPBiCGStab:  Solving for k, Initial residual = 0.00112296, Final residual = 2.96507e-11, No Iterations 6
ExecutionTime = 1 s  ClockTime = 1 s

Time = 58

DILUPBiCGStab:  Solving for Ux, Initial residual = 0.000121598, Final residual = 5.79309e-11, No Iterations 5
DILUPBiCGStab:  Solving for Uy, Initial residual = 0.000404889, Final residual = 3.94719e-11, No Iterations 6
Pressure gradient source: uncorrected Ubar = 0.020188, pressure gradient = 7.01121e-06
GAMG:  Solving for p, Initial residual = 0.000827557, Final residual = 3.35221e-05, No Iterations 4
GAMG:  Solving for p, Initial residual = 0.000208559, Final residual = 8.78351e-06, No Iterations 3
time step continuity errors : sum local = 1.33939e-09, global = 2.62882e-20, cumulative = 8.16391e-17
Pressure gradient source: uncorrected Ubar = 0.020188, pressure gradient = 7.03019e-06
DILUPBiCGStab:  Solving for omega, Initial residual = 3.67177e-07, Final residual = 6.90472e-11, No Iterations 3
DILUPBiCGStab:  Solving for k, Initial residual = 0.00112018, Final residual = 2.86941e-11, No Iterations 6
ExecutionTime = 1.02 s  ClockTime = 1 s

Time = 59

DILUPBiCGStab:  Solving for Ux, Initial residual = 0.000121662, Final residual = 5.8027e-11, No Iterations 5
DILUPBiCGStab:  Solving for Uy, Initial residual = 0.000406925, Final residual = 3.94193e-11, No Iterations 6
Pressure gradient source: uncorrected Ubar = 0.020188, pressure gradient = 7.0167e-06
GAMG:  Solving for p, Initial residual = 0.00082586, Final residual = 3.45003e-05, No Iterations 4
GAMG:  Solving for p, Initial residual = 0.000209062, Final residual = 7.80036e-06, No Iterations 3
time step continuity errors : sum local = 1.20034e-09, global = 5.92422e-21, cumulative = 8.1645e-17
Pressure gradient source: uncorrected Ubar = 0.020188, pressure gradient = 7.0362e-06
DILUPBiCGStab:  Solving for omega, Initial residual = 3.65105e-07, Final residual = 6.87929e-11, No Iterations 3
DILUPBiCGStab:  Solving for k, Initial residual = 0.00111741, Final residual = 2.76022e-11, No Iterations 6
ExecutionTime = 1.04 s  ClockTime = 1 s

Time = 60

DILUPBiCGStab:  Solving for Ux, Initial residual = 0.000121719, Final residual = 5.80598e-11, No Iterations 5
DILUPBiCGStab:  Solving for Uy, Initial residual = 0.00040894, Final residual = 3.97163e-11, No Iterations 6
Pressure gradient source: uncorrected Ubar = 0.020188, pressure gradient = 7.02206e-06
GAMG:  Solving for p, Initial residual = 0.000824271, Final residual = 3.3983e-05, No Iterations 4
GAMG:  Solving for p, Initial residual = 0.000205159, Final residual = 8.42004e-06, No Iterations 3
time step continuity errors : sum local = 1.28211e-09, global = 1.4068e-19, cumulative = 8.17857e-17
Pressure gradient source: uncorrected Ubar = 0.020188, pressure gradient = 7.04203e-06
DILUPBiCGStab:  Solving for omega, Initial residual = 3.63069e-07, Final residual = 6.85055e-11, No Iterations 3
DILUPBiCGStab:  Solving for k, Initial residual = 0.00111465, Final residual = 2.64337e-11, No Iterations 6
ExecutionTime = 1.05 s  ClockTime = 1 s

Time = 61

DILUPBiCGStab:  Solving for Ux, Initial residual = 0.000121769, Final residual = 5.80307e-11, No Iterations 5
DILUPBiCGStab:  Solving for Uy, Initial residual = 0.000410905, Final residual = 4.00777e-11, No Iterations 6
Pressure gradient source: uncorrected Ubar = 0.020188, pressure gradient = 7.02764e-06
GAMG:  Solving for p, Initial residual = 0.000823222, Final residual = 3.52322e-05, No Iterations 4
GAMG:  Solving for p, Initial residual = 0.000206077, Final residual = 7.55413e-06, No Iterations 3
time step continuity errors : sum local = 1.16554e-09, global = 2.79928e-20, cumulative = 8.18137e-17
Pressure gradient source: uncorrected Ubar = 0.020188, pressure gradient = 7.04806e-06
DILUPBiCGStab:  Solving for omega, Initial residual = 3.61105e-07, Final residual = 6.82509e-11, No Iterations 3
DILUPBiCGStab:  Solving for k, Initial residual = 0.00111188, Final residual = 2.52979e-11, No Iterations 6
ExecutionTime = 1.07 s  ClockTime = 2 s

Time = 62

DILUPBiCGStab:  Solving for Ux, Initial residual = 0.000121816, Final residual = 5.79347e-11, No Iterations 5
DILUPBiCGStab:  Solving for Uy, Initial residual = 0.000412787, Final residual = 4.0624e-11, No Iterations 6
Pressure gradient source: uncorrected Ubar = 0.020188, pressure gradient = 7.03283e-06
GAMG:  Solving for p, Initial residual = 0.000821068, Final residual = 3.57787e-05, No Iterations 4
GAMG:  Solving for p, Initial residual = 0.000204639, Final residual = 7.52494e-06, No Iterations 3
time step continuity errors : sum local = 1.16724e-09, global = -1.16856e-19, cumulative = 8.16968e-17
Pressure gradient source: uncorrected Ubar = 0.020188, pressure gradient = 7.05391e-06
DILUPBiCGStab:  Solving for omega, Initial residual = 3.59165e-07, Final residual = 6.7956e-11, No Iterations 3
DILUPBiCGStab:  Solving for k, Initial residual = 0.00110911, Final residual = 2.42228e-11, No Iterations 6
ExecutionTime = 1.08 s  ClockTime = 2 s

Time = 63

DILUPBiCGStab:  Solving for Ux, Initial residual = 0.000121859, Final residual = 5.77633e-11, No Iterations 5
DILUPBiCGStab:  Solving for Uy, Initial residual = 0.000414704, Final residual = 4.12444e-11, No Iterations 6
Pressure gradient source: uncorrected Ubar = 0.020188, pressure gradient = 7.0383e-06
GAMG:  Solving for p, Initial residual = 0.00081856, Final residual = 3.58522e-05, No Iterations 4
GAMG:  Solving for p, Initial residual = 0.000202797, Final residual = 7.31853e-06, No Iterations 3
time step continuity errors : sum local = 1.12306e-09, global = 1.75762e-19, cumulative = 8.18726e-17
Pressure gradient source: uncorrected Ubar = 0.020188, pressure gradient = 7.05977e-06
DILUPBiCGStab:  Solving for omega, Initial residual = 3.57263e-07, Final residual = 6.76649e-11, No Iterations 3
DILUPBiCGStab:  Solving for k, Initial residual = 0.00110634, Final residual = 2.32525e-11, No Iterations 6
ExecutionTime = 1.09 s  ClockTime = 2 s

Time = 64

DILUPBiCGStab:  Solving for Ux, Initial residual = 0.000121897, Final residual = 5.75795e-11, No Iterations 5
DILUPBiCGStab:  Solving for Uy, Initial residual = 0.00041656, Final residual = 4.19959e-11, No Iterations 6
Pressure gradient source: uncorrected Ubar = 0.020188, pressure gradient = 7.04368e-06
GAMG:  Solving for p, Initial residual = 0.00081774, Final residual = 3.64259e-05, No Iterations 4
GAMG:  Solving for p, Initial residual = 0.000201805, Final residual = 7.34038e-06, No Iterations 3
time step continuity errors : sum local = 1.1375e-09, global = -5.57611e-20, cumulative = 8.18168e-17
Pressure gradient source: uncorrected Ubar = 0.020188, pressure gradient = 7.06564e-06
DILUPBiCGStab:  Solving for omega, Initial residual = 3.55384e-07, Final residual = 6.73113e-11, No Iterations 3
DILUPBiCGStab:  Solving for k, Initial residual = 0.00110358, Final residual = 2.23175e-11, No Iterations 6
ExecutionTime = 1.11 s  ClockTime = 2 s

Time = 65

DILUPBiCGStab:  Solving for Ux, Initial residual = 0.000121929, Final residual = 5.73507e-11, No Iterations 5
DILUPBiCGStab:  Solving for Uy, Initial residual = 0.000418382, Final residual = 4.26222e-11, No Iterations 6
Pressure gradient source: uncorrected Ubar = 0.020188, pressure gradient = 7.049e-06
GAMG:  Solving for p, Initial residual = 0.000818097, Final residual = 3.67481e-05, No Iterations 4
GAMG:  Solving for p, Initial residual = 0.000200923, Final residual = 7.03266e-06, No Iterations 3
time step continuity errors : sum local = 1.08268e-09, global = 2.59826e-19, cumulative = 8.20767e-17
Pressure gradient source: uncorrected Ubar = 0.020188, pressure gradient = 7.07148e-06
DILUPBiCGStab:  Solving for omega, Initial residual = 3.53526e-07, Final residual = 6.69555e-11, No Iterations 3
DILUPBiCGStab:  Solving for k, Initial residual = 0.00110081, Final residual = 2.14902e-11, No Iterations 6
ExecutionTime = 1.13 s  ClockTime = 2 s

Time = 66

DILUPBiCGStab:  Solving for Ux, Initial residual = 0.000121957, Final residual = 5.71051e-11, No Iterations 5
DILUPBiCGStab:  Solving for Uy, Initial residual = 0.000420191, Final residual = 4.33807e-11, No Iterations 6
Pressure gradient source: uncorrected Ubar = 0.020188, pressure gradient = 7.05432e-06
GAMG:  Solving for p, Initial residual = 0.000818543, Final residual = 3.70684e-05, No Iterations 4
GAMG:  Solving for p, Initial residual = 0.000199908, Final residual = 7.33965e-06, No Iterations 3
time step continuity errors : sum local = 1.1376e-09, global = 3.47036e-21, cumulative = 8.20801e-17
Pressure gradient source: uncorrected Ubar = 0.020188, pressure gradient = 7.07726e-06
DILUPBiCGStab:  Solving for omega, Initial residual = 3.51702e-07, Final residual = 6.65225e-11, No Iterations 3
DILUPBiCGStab:  Solving for k, Initial residual = 0.00109805, Final residual = 2.06677e-11, No Iterations 6
ExecutionTime = 1.15 s  ClockTime = 2 s

Time = 67

DILUPBiCGStab:  Solving for Ux, Initial residual = 0.000121979, Final residual = 5.6796e-11, No Iterations 5
DILUPBiCGStab:  Solving for Uy, Initial residual = 0.000421989, Final residual = 4.3733e-11, No Iterations 6
Pressure gradient source: uncorrected Ubar = 0.020188, pressure gradient = 7.05969e-06
GAMG:  Solving for p, Initial residual = 0.000819237, Final residual = 3.73733e-05, No Iterations 4
GAMG:  Solving for p, Initial residual = 0.000199086, Final residual = 6.95863e-06, No Iterations 3
time step continuity errors : sum local = 1.07935e-09, global = 1.22695e-19, cumulative = 8.22028e-17
Pressure gradient source: uncorrected Ubar = 0.020188, pressure gradient = 7.08302e-06
DILUPBiCGStab:  Solving for omega, Initial residual = 3.49906e-07, Final residual = 6.61067e-11, No Iterations 3
DILUPBiCGStab:  Solving for k, Initial residual = 0.00109529, Final residual = 1.99348e-11, No Iterations 6
ExecutionTime = 1.16 s  ClockTime = 2 s

Time = 68

DILUPBiCGStab:  Solving for Ux, Initial residual = 0.000122002, Final residual = 5.64633e-11, No Iterations 5
DILUPBiCGStab:  Solving for Uy, Initial residual = 0.000423672, Final residual = 4.42569e-11, No Iterations 6
Pressure gradient source: uncorrected Ubar = 0.020188, pressure gradient = 7.06504e-06
GAMG:  Solving for p, Initial residual = 0.000819289, Final residual = 3.76659e-05, No Iterations 4
GAMG:  Solving for p, Initial residual = 0.000198016, Final residual = 7.45284e-06, No Iterations 3
time step continuity errors : sum local = 1.15226e-09, global = -2.96213e-19, cumulative = 8.19066e-17
Pressure gradient source: uncorrected Ubar = 0.020188, pressure gradient = 7.08882e-06
DILUPBiCGStab:  Solving for omega, Initial residual = 3.48144e-07, Final residual = 6.5669e-11, No Iterations 3
DILUPBiCGStab:  Solving for k, Initial residual = 0.00109253, Final residual = 1.91938e-11, No Iterations 6
ExecutionTime = 1.18 s  ClockTime = 2 s

Time = 69

DILUPBiCGStab:  Solving for Ux, Initial residual = 0.00012202, Final residual = 5.60497e-11, No Iterations 5
DILUPBiCGStab:  Solving for Uy, Initial residual = 0.000425316, Final residual = 4.40575e-11, No Iterations 6
Pressure gradient source: uncorrected Ubar = 0.020188, pressure gradient = 7.07027e-06
GAMG:  Solving for p, Initial residual = 0.000818961, Final residual = 3.80022e-05, No Iterations 4
GAMG:  Solving for p, Initial residual = 0.000197287, Final residual = 7.11787e-06, No Iterations 3
time step continuity errors : sum local = 1.09963e-09, global = -5.5025e-20, cumulative = 8.18516e-17
Pressure gradient source: uncorrected Ubar = 0.020188, pressure gradient = 7.09445e-06
DILUPBiCGStab:  Solving for omega, Initial residual = 3.46418e-07, Final residual = 6.52282e-11, No Iterations 3
DILUPBiCGStab:  Solving for k, Initial residual = 0.00108977, Final residual = 1.85187e-11, No Iterations 6
ExecutionTime = 1.2 s  ClockTime = 2 s

Time = 70

DILUPBiCGStab:  Solving for Ux, Initial residual = 0.000122037, Final residual = 5.56882e-11, No Iterations 5
DILUPBiCGStab:  Solving for Uy, Initial residual = 0.000426949, Final residual = 4.36525e-11, No Iterations 6
Pressure gradient source: uncorrected Ubar = 0.020188, pressure gradient = 7.07571e-06
GAMG:  Solving for p, Initial residual = 0.000819192, Final residual = 3.82623e-05, No Iterations 4
GAMG:  Solving for p, Initial residual = 0.000196304, Final residual = 7.06556e-06, No Iterations 3
time step continuity errors : sum local = 1.09012e-09, global = -2.40818e-19, cumulative = 8.16108e-17
Pressure gradient source: uncorrected Ubar = 0.020188, pressure gradient = 7.10019e-06
DILUPBiCGStab:  Solving for omega, Initial residual = 3.44722e-07, Final residual = 6.47407e-11, No Iterations 3
DILUPBiCGStab:  Solving for k, Initial residual = 0.00108702, Final residual = 1.7892e-11, No Iterations 6
ExecutionTime = 1.22 s  ClockTime = 2 s

Time = 71

DILUPBiCGStab:  Solving for Ux, Initial residual = 0.000122047, Final residual = 5.52419e-11, No Iterations 5
DILUPBiCGStab:  Solving for Uy, Initial residual = 0.000428534, Final residual = 4.29426e-11, No Iterations 6
Pressure gradient source: uncorrected Ubar = 0.020188, pressure gradient = 7.0809e-06
GAMG:  Solving for p, Initial residual = 0.000820496, Final residual = 3.8557e-05, No Iterations 4
GAMG:  Solving for p, Initial residual = 0.000195519, Final residual = 7.17808e-06, No Iterations 3
time step continuity errors : sum local = 1.10729e-09, global = 3.8247e-20, cumulative = 8.1649e-17
Pressure gradient source: uncorrected Ubar = 0.020188, pressure gradient = 7.10589e-06
DILUPBiCGStab:  Solving for omega, Initial residual = 3.43061e-07, Final residual = 6.42765e-11, No Iterations 3
DILUPBiCGStab:  Solving for k, Initial residual = 0.00108426, Final residual = 1.73346e-11, No Iterations 6
ExecutionTime = 1.24 s  ClockTime = 2 s

Time = 72

DILUPBiCGStab:  Solving for Ux, Initial residual = 0.000122054, Final residual = 5.47547e-11, No Iterations 5
DILUPBiCGStab:  Solving for Uy, Initial residual = 0.00043004, Final residual = 4.18213e-11, No Iterations 6
Pressure gradient source: uncorrected Ubar = 0.020188, pressure gradient = 7.08612e-06
GAMG:  Solving for p, Initial residual = 0.000822385, Final residual = 3.8847e-05, No Iterations 4
GAMG:  Solving for p, Initial residual = 0.000194857, Final residual = 7.34957e-06, No Iterations 3
time step continuity errors : sum local = 1.13254e-09, global = 1.16998e-19, cumulative = 8.1766e-17
Pressure gradient source: uncorrected Ubar = 0.020188, pressure gradient = 7.11151e-06
DILUPBiCGStab:  Solving for omega, Initial residual = 3.41436e-07, Final residual = 6.38764e-11, No Iterations 3
DILUPBiCGStab:  Solving for k, Initial residual = 0.00108151, Final residual = 1.67725e-11, No Iterations 6
ExecutionTime = 1.25 s  ClockTime = 2 s

Time = 73

DILUPBiCGStab:  Solving for Ux, Initial residual = 0.000122057, Final residual = 5.42559e-11, No Iterations 5
DILUPBiCGStab:  Solving for Uy, Initial residual = 0.000431579, Final residual = 4.02535e-11, No Iterations 6
Pressure gradient source: uncorrected Ubar = 0.020188, pressure gradient = 7.09143e-06
GAMG:  Solving for p, Initial residual = 0.000824308, Final residual = 3.91494e-05, No Iterations 4
GAMG:  Solving for p, Initial residual = 0.000194137, Final residual = 7.5246e-06, No Iterations 3
time step continuity errors : sum local = 1.15735e-09, global = 2.2469e-19, cumulative = 8.19907e-17
Pressure gradient source: uncorrected Ubar = 0.020188, pressure gradient = 7.11709e-06
DILUPBiCGStab:  Solving for omega, Initial residual = 3.39844e-07, Final residual = 6.34978e-11, No Iterations 3
DILUPBiCGStab:  Solving for k, Initial residual = 0.00107875, Final residual = 1.61743e-11, No Iterations 6
ExecutionTime = 1.28 s  ClockTime = 2 s

Time = 74

DILUPBiCGStab:  Solving for Ux, Initial residual = 0.000122056, Final residual = 5.37237e-11, No Iterations 5
DILUPBiCGStab:  Solving for Uy, Initial residual = 0.000433064, Final residual = 3.81722e-11, No Iterations 6
Pressure gradient source: uncorrected Ubar = 0.020188, pressure gradient = 7.09672e-06
GAMG:  Solving for p, Initial residual = 0.000825073, Final residual = 3.94552e-05, No Iterations 4
GAMG:  Solving for p, Initial residual = 0.000193292, Final residual = 7.68632e-06, No Iterations 3
time step continuity errors : sum local = 1.1795e-09, global = -4.5285e-22, cumulative = 8.19903e-17
Pressure gradient source: uncorrected Ubar = 0.020188, pressure gradient = 7.12265e-06
DILUPBiCGStab:  Solving for omega, Initial residual = 3.38271e-07, Final residual = 6.31314e-11, No Iterations 3
DILUPBiCGStab:  Solving for k, Initial residual = 0.001076, Final residual = 9.83519e-11, No Iterations 6
ExecutionTime = 1.29 s  ClockTime = 2 s

Time = 75

DILUPBiCGStab:  Solving for Ux, Initial residual = 0.000122054, Final residual = 5.31167e-11, No Iterations 5
DILUPBiCGStab:  Solving for Uy, Initial residual = 0.000434451, Final residual = 3.57994e-11, No Iterations 6
Pressure gradient source: uncorrected Ubar = 0.020188, pressure gradient = 7.10195e-06
GAMG:  Solving for p, Initial residual = 0.000826795, Final residual = 3.97483e-05, No Iterations 4
GAMG:  Solving for p, Initial residual = 0.000192677, Final residual = 7.84533e-06, No Iterations 3
time step continuity errors : sum local = 1.20077e-09, global = 1.54433e-19, cumulative = 8.21447e-17
Pressure gradient source: uncorrected Ubar = 0.020188, pressure gradient = 7.12818e-06
DILUPBiCGStab:  Solving for omega, Initial residual = 3.36715e-07, Final residual = 6.27679e-11, No Iterations 3
DILUPBiCGStab:  Solving for k, Initial residual = 0.00107325, Final residual = 9.56966e-11, No Iterations 6
ExecutionTime = 1.31 s  ClockTime = 2 s

Time = 76

DILUPBiCGStab:  Solving for Ux, Initial residual = 0.00012205, Final residual = 5.25384e-11, No Iterations 5
DILUPBiCGStab:  Solving for Uy, Initial residual = 0.000435794, Final residual = 3.32131e-11, No Iterations 6
Pressure gradient source: uncorrected Ubar = 0.020188, pressure gradient = 7.10716e-06
GAMG:  Solving for p, Initial residual = 0.00082855, Final residual = 4.00314e-05, No Iterations 4
GAMG:  Solving for p, Initial residual = 0.000192067, Final residual = 8.01966e-06, No Iterations 3
time step continuity errors : sum local = 1.22399e-09, global = 1.43104e-19, cumulative = 8.22878e-17
Pressure gradient source: uncorrected Ubar = 0.020188, pressure gradient = 7.13368e-06
DILUPBiCGStab:  Solving for omega, Initial residual = 3.35182e-07, Final residual = 6.24078e-11, No Iterations 3
DILUPBiCGStab:  Solving for k, Initial residual = 0.00107051, Final residual = 9.29992e-11, No Iterations 6
ExecutionTime = 1.32 s  ClockTime = 2 s

Time = 77

DILUPBiCGStab:  Solving for Ux, Initial residual = 0.000122042, Final residual = 5.19458e-11, No Iterations 5
DILUPBiCGStab:  Solving for Uy, Initial residual = 0.000437147, Final residual = 3.05359e-11, No Iterations 6
Pressure gradient source: uncorrected Ubar = 0.020188, pressure gradient = 7.11235e-06
GAMG:  Solving for p, Initial residual = 0.000828151, Final residual = 4.0319e-05, No Iterations 4
GAMG:  Solving for p, Initial residual = 0.000191273, Final residual = 8.2247e-06, No Iterations 3
time step continuity errors : sum local = 1.25126e-09, global = -7.33046e-20, cumulative = 8.22145e-17
Pressure gradient source: uncorrected Ubar = 0.020188, pressure gradient = 7.13913e-06
DILUPBiCGStab:  Solving for omega, Initial residual = 3.33686e-07, Final residual = 6.20329e-11, No Iterations 3
DILUPBiCGStab:  Solving for k, Initial residual = 0.00106776, Final residual = 9.02964e-11, No Iterations 6
ExecutionTime = 1.34 s  ClockTime = 2 s

Time = 78

DILUPBiCGStab:  Solving for Ux, Initial residual = 0.00012203, Final residual = 5.13372e-11, No Iterations 5
DILUPBiCGStab:  Solving for Uy, Initial residual = 0.000438429, Final residual = 2.76652e-11, No Iterations 6
Pressure gradient source: uncorrected Ubar = 0.020188, pressure gradient = 7.11755e-06
GAMG:  Solving for p, Initial residual = 0.000829059, Final residual = 4.05929e-05, No Iterations 4
GAMG:  Solving for p, Initial residual = 0.000190746, Final residual = 7.88864e-06, No Iterations 3
time step continuity errors : sum local = 1.19193e-09, global = 2.19363e-19, cumulative = 8.24339e-17
Pressure gradient source: uncorrected Ubar = 0.020188, pressure gradient = 7.14446e-06
DILUPBiCGStab:  Solving for omega, Initial residual = 3.32226e-07, Final residual = 6.16399e-11, No Iterations 3
DILUPBiCGStab:  Solving for k, Initial residual = 0.00106502, Final residual = 8.75824e-11, No Iterations 6
ExecutionTime = 1.35 s  ClockTime = 2 s

Time = 79

DILUPBiCGStab:  Solving for Ux, Initial residual = 0.000122018, Final residual = 5.07716e-11, No Iterations 5
DILUPBiCGStab:  Solving for Uy, Initial residual = 0.0004396, Final residual = 2.47022e-11, No Iterations 6
Pressure gradient source: uncorrected Ubar = 0.020188, pressure gradient = 7.12282e-06
GAMG:  Solving for p, Initial residual = 0.000831653, Final residual = 4.07149e-05, No Iterations 4
GAMG:  Solving for p, Initial residual = 0.000190336, Final residual = 8.44012e-06, No Iterations 3
time step continuity errors : sum local = 1.27886e-09, global = -4.19126e-20, cumulative = 8.23919e-17
Pressure gradient source: uncorrected Ubar = 0.020188, pressure gradient = 7.14998e-06
DILUPBiCGStab:  Solving for omega, Initial residual = 3.30785e-07, Final residual = 6.12391e-11, No Iterations 3
DILUPBiCGStab:  Solving for k, Initial residual = 0.00106228, Final residual = 8.48889e-11, No Iterations 6
ExecutionTime = 1.37 s  ClockTime = 2 s

Time = 80

DILUPBiCGStab:  Solving for Ux, Initial residual = 0.000121996, Final residual = 5.01654e-11, No Iterations 5
DILUPBiCGStab:  Solving for Uy, Initial residual = 0.000440871, Final residual = 9.99774e-11, No Iterations 6
Pressure gradient source: uncorrected Ubar = 0.020188, pressure gradient = 7.12771e-06
GAMG:  Solving for p, Initial residual = 0.000832853, Final residual = 3.84878e-05, No Iterations 4
GAMG:  Solving for p, Initial residual = 0.000186867, Final residual = 8.23651e-06, No Iterations 3
[...]
time step continuity errors : sum local = 1.65762e-11, global = 2.08582e-20, cumulative = 1.57633e-16
Pressure gradient source: uncorrected Ubar = 0.020188, pressure gradient = 8.21679e-06
DILUPBiCGStab:  Solving for omega, Initial residual = 4.28135e-09, Final residual = 6.27484e-11, No Iterations 1
DILUPBiCGStab:  Solving for k, Initial residual = 1.05393e-05, Final residual = 3.67107e-11, No Iterations 4
ExecutionTime = 39.31 s  ClockTime = 40 s

Time = 2839

DILUPBiCGStab:  Solving for Ux, Initial residual = 2.75151e-06, Final residual = 8.62698e-11, No Iterations 3
DILUPBiCGStab:  Solving for Uy, Initial residual = 4.57032e-06, Final residual = 5.11093e-11, No Iterations 4
Pressure gradient source: uncorrected Ubar = 0.020188, pressure gradient = 8.21767e-06
GAMG:  Solving for p, Initial residual = 5.26402e-06, Final residual = 1.74732e-07, No Iterations 5
GAMG:  Solving for p, Initial residual = 2.2027e-06, Final residual = 1.0007e-07, No Iterations 3
time step continuity errors : sum local = 1.65664e-11, global = 1.4666e-19, cumulative = 1.57779e-16
Pressure gradient source: uncorrected Ubar = 0.020188, pressure gradient = 8.21675e-06
DILUPBiCGStab:  Solving for omega, Initial residual = 4.27498e-09, Final residual = 6.26608e-11, No Iterations 1
DILUPBiCGStab:  Solving for k, Initial residual = 1.05115e-05, Final residual = 3.66117e-11, No Iterations 4
ExecutionTime = 39.32 s  ClockTime = 40 s

Time = 2840

DILUPBiCGStab:  Solving for Ux, Initial residual = 2.74925e-06, Final residual = 8.62214e-11, No Iterations 3
DILUPBiCGStab:  Solving for Uy, Initial residual = 4.56684e-06, Final residual = 5.10845e-11, No Iterations 4
Pressure gradient source: uncorrected Ubar = 0.020188, pressure gradient = 8.21762e-06
GAMG:  Solving for p, Initial residual = 5.2591e-06, Final residual = 1.74967e-07, No Iterations 5
GAMG:  Solving for p, Initial residual = 2.201e-06, Final residual = 1.00016e-07, No Iterations 3
time step continuity errors : sum local = 1.65574e-11, global = 3.04153e-20, cumulative = 1.5781e-16
Pressure gradient source: uncorrected Ubar = 0.020188, pressure gradient = 8.2167e-06
DILUPBiCGStab:  Solving for omega, Initial residual = 4.26861e-09, Final residual = 6.25734e-11, No Iterations 1
DILUPBiCGStab:  Solving for k, Initial residual = 1.04838e-05, Final residual = 3.65128e-11, No Iterations 4
ExecutionTime = 39.33 s  ClockTime = 40 s

Time = 2841

DILUPBiCGStab:  Solving for Ux, Initial residual = 2.747e-06, Final residual = 8.61729e-11, No Iterations 3
DILUPBiCGStab:  Solving for Uy, Initial residual = 4.56335e-06, Final residual = 5.10594e-11, No Iterations 4
Pressure gradient source: uncorrected Ubar = 0.020188, pressure gradient = 8.21758e-06
GAMG:  Solving for p, Initial residual = 5.2542e-06, Final residual = 1.74855e-07, No Iterations 5
GAMG:  Solving for p, Initial residual = 2.19929e-06, Final residual = 9.99565e-08, No Iterations 3
time step continuity errors : sum local = 1.65474e-11, global = -6.0055e-20, cumulative = 1.5775e-16
Pressure gradient source: uncorrected Ubar = 0.020188, pressure gradient = 8.21665e-06
DILUPBiCGStab:  Solving for omega, Initial residual = 4.26225e-09, Final residual = 6.24859e-11, No Iterations 1
DILUPBiCGStab:  Solving for k, Initial residual = 1.04561e-05, Final residual = 3.64141e-11, No Iterations 4
ExecutionTime = 39.34 s  ClockTime = 40 s

Time = 2842

DILUPBiCGStab:  Solving for Ux, Initial residual = 2.74474e-06, Final residual = 8.61242e-11, No Iterations 3
DILUPBiCGStab:  Solving for Uy, Initial residual = 4.55986e-06, Final residual = 5.10343e-11, No Iterations 4
Pressure gradient source: uncorrected Ubar = 0.020188, pressure gradient = 8.21753e-06
GAMG:  Solving for p, Initial residual = 5.24931e-06, Final residual = 1.7473e-07, No Iterations 5
GAMG:  Solving for p, Initial residual = 2.19751e-06, Final residual = 9.9898e-08, No Iterations 3
time step continuity errors : sum local = 1.65376e-11, global = -1.55243e-19, cumulative = 1.57594e-16
Pressure gradient source: uncorrected Ubar = 0.020188, pressure gradient = 8.2166e-06
DILUPBiCGStab:  Solving for omega, Initial residual = 4.2559e-09, Final residual = 6.23983e-11, No Iterations 1
DILUPBiCGStab:  Solving for k, Initial residual = 1.04284e-05, Final residual = 3.63156e-11, No Iterations 4
ExecutionTime = 39.35 s  ClockTime = 40 s

Time = 2843

DILUPBiCGStab:  Solving for Ux, Initial residual = 2.74248e-06, Final residual = 8.60754e-11, No Iterations 3
DILUPBiCGStab:  Solving for Uy, Initial residual = 4.55636e-06, Final residual = 5.10091e-11, No Iterations 4
Pressure gradient source: uncorrected Ubar = 0.020188, pressure gradient = 8.21748e-06
GAMG:  Solving for p, Initial residual = 5.24445e-06, Final residual = 1.74608e-07, No Iterations 5
GAMG:  Solving for p, Initial residual = 2.19574e-06, Final residual = 9.98393e-08, No Iterations 3
time step continuity errors : sum local = 1.65277e-11, global = 2.3622e-19, cumulative = 1.57831e-16
Pressure gradient source: uncorrected Ubar = 0.020188, pressure gradient = 8.21656e-06
DILUPBiCGStab:  Solving for omega, Initial residual = 4.24955e-09, Final residual = 6.23107e-11, No Iterations 1
DILUPBiCGStab:  Solving for k, Initial residual = 1.04008e-05, Final residual = 3.62172e-11, No Iterations 4
ExecutionTime = 39.37 s  ClockTime = 40 s

Time = 2844

DILUPBiCGStab:  Solving for Ux, Initial residual = 2.74021e-06, Final residual = 8.60265e-11, No Iterations 3
DILUPBiCGStab:  Solving for Uy, Initial residual = 4.55285e-06, Final residual = 5.09837e-11, No Iterations 4
Pressure gradient source: uncorrected Ubar = 0.020188, pressure gradient = 8.21743e-06
GAMG:  Solving for p, Initial residual = 5.2396e-06, Final residual = 1.74485e-07, No Iterations 5
GAMG:  Solving for p, Initial residual = 2.19398e-06, Final residual = 9.97803e-08, No Iterations 3
time step continuity errors : sum local = 1.65178e-11, global = 5.32944e-20, cumulative = 1.57884e-16
Pressure gradient source: uncorrected Ubar = 0.020188, pressure gradient = 8.21651e-06
DILUPBiCGStab:  Solving for omega, Initial residual = 4.24321e-09, Final residual = 6.22231e-11, No Iterations 1
DILUPBiCGStab:  Solving for k, Initial residual = 1.03732e-05, Final residual = 3.61189e-11, No Iterations 4
ExecutionTime = 39.38 s  ClockTime = 40 s

Time = 2845

DILUPBiCGStab:  Solving for Ux, Initial residual = 2.73794e-06, Final residual = 8.59775e-11, No Iterations 3
DILUPBiCGStab:  Solving for Uy, Initial residual = 4.54934e-06, Final residual = 5.09583e-11, No Iterations 4
Pressure gradient source: uncorrected Ubar = 0.020188, pressure gradient = 8.21739e-06
GAMG:  Solving for p, Initial residual = 5.23475e-06, Final residual = 1.74363e-07, No Iterations 5
GAMG:  Solving for p, Initial residual = 2.19221e-06, Final residual = 9.97211e-08, No Iterations 3
time step continuity errors : sum local = 1.65078e-11, global = 1.47743e-19, cumulative = 1.58032e-16
Pressure gradient source: uncorrected Ubar = 0.020188, pressure gradient = 8.21646e-06
DILUPBiCGStab:  Solving for omega, Initial residual = 4.23688e-09, Final residual = 6.21354e-11, No Iterations 1
DILUPBiCGStab:  Solving for k, Initial residual = 1.03456e-05, Final residual = 3.60209e-11, No Iterations 4
ExecutionTime = 39.39 s  ClockTime = 40 s

Time = 2846

DILUPBiCGStab:  Solving for Ux, Initial residual = 2.73567e-06, Final residual = 8.59283e-11, No Iterations 3
DILUPBiCGStab:  Solving for Uy, Initial residual = 4.54582e-06, Final residual = 5.09329e-11, No Iterations 4
Pressure gradient source: uncorrected Ubar = 0.020188, pressure gradient = 8.21734e-06
GAMG:  Solving for p, Initial residual = 5.22681e-06, Final residual = 1.74238e-07, No Iterations 5
GAMG:  Solving for p, Initial residual = 2.19014e-06, Final residual = 9.96608e-08, No Iterations 3
time step continuity errors : sum local = 1.64977e-11, global = 9.60267e-20, cumulative = 1.58128e-16
Pressure gradient source: uncorrected Ubar = 0.020188, pressure gradient = 8.21642e-06
DILUPBiCGStab:  Solving for omega, Initial residual = 4.23055e-09, Final residual = 6.20477e-11, No Iterations 1
DILUPBiCGStab:  Solving for k, Initial residual = 1.03181e-05, Final residual = 3.59229e-11, No Iterations 4
ExecutionTime = 39.4 s  ClockTime = 40 s

Time = 2847

DILUPBiCGStab:  Solving for Ux, Initial residual = 2.7334e-06, Final residual = 8.58789e-11, No Iterations 3
DILUPBiCGStab:  Solving for Uy, Initial residual = 4.54229e-06, Final residual = 5.09076e-11, No Iterations 4
Pressure gradient source: uncorrected Ubar = 0.020188, pressure gradient = 8.21729e-06
GAMG:  Solving for p, Initial residual = 5.2158e-06, Final residual = 1.74111e-07, No Iterations 5
GAMG:  Solving for p, Initial residual = 2.1878e-06, Final residual = 9.95997e-08, No Iterations 3
time step continuity errors : sum local = 1.64874e-11, global = -3.8074e-19, cumulative = 1.57747e-16
Pressure gradient source: uncorrected Ubar = 0.020188, pressure gradient = 8.21637e-06
DILUPBiCGStab:  Solving for omega, Initial residual = 4.22423e-09, Final residual = 6.19599e-11, No Iterations 1
DILUPBiCGStab:  Solving for k, Initial residual = 1.02906e-05, Final residual = 3.58251e-11, No Iterations 4
ExecutionTime = 39.42 s  ClockTime = 40 s

Time = 2848

DILUPBiCGStab:  Solving for Ux, Initial residual = 2.73112e-06, Final residual = 8.58294e-11, No Iterations 3
DILUPBiCGStab:  Solving for Uy, Initial residual = 4.53876e-06, Final residual = 5.08819e-11, No Iterations 4
Pressure gradient source: uncorrected Ubar = 0.020188, pressure gradient = 8.21724e-06
GAMG:  Solving for p, Initial residual = 5.20723e-06, Final residual = 1.73986e-07, No Iterations 5
GAMG:  Solving for p, Initial residual = 2.18569e-06, Final residual = 9.95396e-08, No Iterations 3
time step continuity errors : sum local = 1.64773e-11, global = 1.96196e-20, cumulative = 1.57767e-16
Pressure gradient source: uncorrected Ubar = 0.020188, pressure gradient = 8.21633e-06
DILUPBiCGStab:  Solving for omega, Initial residual = 4.21791e-09, Final residual = 6.18721e-11, No Iterations 1
DILUPBiCGStab:  Solving for k, Initial residual = 1.02632e-05, Final residual = 3.57275e-11, No Iterations 4
ExecutionTime = 39.43 s  ClockTime = 40 s

Time = 2849

DILUPBiCGStab:  Solving for Ux, Initial residual = 2.72885e-06, Final residual = 8.57798e-11, No Iterations 3
DILUPBiCGStab:  Solving for Uy, Initial residual = 4.53521e-06, Final residual = 5.0856e-11, No Iterations 4
Pressure gradient source: uncorrected Ubar = 0.020188, pressure gradient = 8.2172e-06
GAMG:  Solving for p, Initial residual = 5.20015e-06, Final residual = 1.73862e-07, No Iterations 5
GAMG:  Solving for p, Initial residual = 2.18375e-06, Final residual = 9.94796e-08, No Iterations 3
time step continuity errors : sum local = 1.64672e-11, global = -1.04873e-19, cumulative = 1.57662e-16
Pressure gradient source: uncorrected Ubar = 0.020188, pressure gradient = 8.21628e-06
DILUPBiCGStab:  Solving for omega, Initial residual = 4.2116e-09, Final residual = 6.17843e-11, No Iterations 1
DILUPBiCGStab:  Solving for k, Initial residual = 1.02358e-05, Final residual = 3.563e-11, No Iterations 4
ExecutionTime = 39.44 s  ClockTime = 40 s

Time = 2850

DILUPBiCGStab:  Solving for Ux, Initial residual = 2.72657e-06, Final residual = 8.573e-11, No Iterations 3
DILUPBiCGStab:  Solving for Uy, Initial residual = 4.53167e-06, Final residual = 5.08299e-11, No Iterations 4
Pressure gradient source: uncorrected Ubar = 0.020188, pressure gradient = 8.21715e-06
GAMG:  Solving for p, Initial residual = 5.19461e-06, Final residual = 1.73738e-07, No Iterations 5
GAMG:  Solving for p, Initial residual = 2.18187e-06, Final residual = 9.94194e-08, No Iterations 3
time step continuity errors : sum local = 1.64571e-11, global = -1.07659e-19, cumulative = 1.57554e-16
Pressure gradient source: uncorrected Ubar = 0.020188, pressure gradient = 8.21623e-06
DILUPBiCGStab:  Solving for omega, Initial residual = 4.20529e-09, Final residual = 6.16965e-11, No Iterations 1
DILUPBiCGStab:  Solving for k, Initial residual = 1.02085e-05, Final residual = 3.55327e-11, No Iterations 4
ExecutionTime = 39.47 s  ClockTime = 40 s

Time = 2851

DILUPBiCGStab:  Solving for Ux, Initial residual = 2.72429e-06, Final residual = 8.56802e-11, No Iterations 3
DILUPBiCGStab:  Solving for Uy, Initial residual = 4.52811e-06, Final residual = 5.08038e-11, No Iterations 4
Pressure gradient source: uncorrected Ubar = 0.020188, pressure gradient = 8.2171e-06
GAMG:  Solving for p, Initial residual = 5.18933e-06, Final residual = 1.73614e-07, No Iterations 5
GAMG:  Solving for p, Initial residual = 2.18004e-06, Final residual = 9.93589e-08, No Iterations 3
time step continuity errors : sum local = 1.64469e-11, global = -1.88159e-20, cumulative = 1.57535e-16
Pressure gradient source: uncorrected Ubar = 0.020188, pressure gradient = 8.21619e-06
DILUPBiCGStab:  Solving for omega, Initial residual = 4.19899e-09, Final residual = 6.16086e-11, No Iterations 1
DILUPBiCGStab:  Solving for k, Initial residual = 1.01812e-05, Final residual = 3.54356e-11, No Iterations 4
ExecutionTime = 39.48 s  ClockTime = 40 s

Time = 2852

DILUPBiCGStab:  Solving for Ux, Initial residual = 2.722e-06, Final residual = 8.56305e-11, No Iterations 3
DILUPBiCGStab:  Solving for Uy, Initial residual = 4.52455e-06, Final residual = 5.07775e-11, No Iterations 4
Pressure gradient source: uncorrected Ubar = 0.020188, pressure gradient = 8.21706e-06
GAMG:  Solving for p, Initial residual = 5.18422e-06, Final residual = 1.7349e-07, No Iterations 5
GAMG:  Solving for p, Initial residual = 2.17823e-06, Final residual = 9.92983e-08, No Iterations 3
time step continuity errors : sum local = 1.64367e-11, global = 2.58247e-20, cumulative = 1.57561e-16
Pressure gradient source: uncorrected Ubar = 0.020188, pressure gradient = 8.21614e-06
DILUPBiCGStab:  Solving for omega, Initial residual = 4.1927e-09, Final residual = 6.15206e-11, No Iterations 1
DILUPBiCGStab:  Solving for k, Initial residual = 1.01539e-05, Final residual = 3.53386e-11, No Iterations 4
ExecutionTime = 39.49 s  ClockTime = 40 s

Time = 2853

DILUPBiCGStab:  Solving for Ux, Initial residual = 2.71972e-06, Final residual = 8.55808e-11, No Iterations 3
DILUPBiCGStab:  Solving for Uy, Initial residual = 4.52098e-06, Final residual = 5.0751e-11, No Iterations 4
Pressure gradient source: uncorrected Ubar = 0.020188, pressure gradient = 8.21701e-06
GAMG:  Solving for p, Initial residual = 5.17927e-06, Final residual = 1.73367e-07, No Iterations 5
GAMG:  Solving for p, Initial residual = 2.17643e-06, Final residual = 9.92375e-08, No Iterations 3
time step continuity errors : sum local = 1.64264e-11, global = -9.15821e-20, cumulative = 1.5747e-16
Pressure gradient source: uncorrected Ubar = 0.020188, pressure gradient = 8.2161e-06
DILUPBiCGStab:  Solving for omega, Initial residual = 4.1864e-09, Final residual = 6.14326e-11, No Iterations 1
DILUPBiCGStab:  Solving for k, Initial residual = 1.01267e-05, Final residual = 3.52417e-11, No Iterations 4
ExecutionTime = 39.5 s  ClockTime = 40 s

Time = 2854

DILUPBiCGStab:  Solving for Ux, Initial residual = 2.71743e-06, Final residual = 8.55309e-11, No Iterations 3
DILUPBiCGStab:  Solving for Uy, Initial residual = 4.51741e-06, Final residual = 5.07245e-11, No Iterations 4
Pressure gradient source: uncorrected Ubar = 0.020188, pressure gradient = 8.21696e-06
GAMG:  Solving for p, Initial residual = 5.17438e-06, Final residual = 1.73243e-07, No Iterations 5
GAMG:  Solving for p, Initial residual = 2.17463e-06, Final residual = 9.91766e-08, No Iterations 3
time step continuity errors : sum local = 1.64162e-11, global = 1.26724e-19, cumulative = 1.57596e-16
Pressure gradient source: uncorrected Ubar = 0.020188, pressure gradient = 8.21605e-06
DILUPBiCGStab:  Solving for omega, Initial residual = 4.18012e-09, Final residual = 6.13447e-11, No Iterations 1
DILUPBiCGStab:  Solving for k, Initial residual = 1.00995e-05, Final residual = 3.5145e-11, No Iterations 4
ExecutionTime = 39.52 s  ClockTime = 40 s

Time = 2855

DILUPBiCGStab:  Solving for Ux, Initial residual = 2.71513e-06, Final residual = 8.54808e-11, No Iterations 3
DILUPBiCGStab:  Solving for Uy, Initial residual = 4.51383e-06, Final residual = 5.06979e-11, No Iterations 4
Pressure gradient source: uncorrected Ubar = 0.020188, pressure gradient = 8.21692e-06
GAMG:  Solving for p, Initial residual = 5.16954e-06, Final residual = 1.73118e-07, No Iterations 5
GAMG:  Solving for p, Initial residual = 2.17283e-06, Final residual = 9.91155e-08, No Iterations 3
time step continuity errors : sum local = 1.64059e-11, global = -7.64173e-20, cumulative = 1.5752e-16
Pressure gradient source: uncorrected Ubar = 0.020188, pressure gradient = 8.21601e-06
DILUPBiCGStab:  Solving for omega, Initial residual = 4.17384e-09, Final residual = 6.12567e-11, No Iterations 1
DILUPBiCGStab:  Solving for k, Initial residual = 1.00724e-05, Final residual = 3.50485e-11, No Iterations 4
ExecutionTime = 39.53 s  ClockTime = 40 s

Time = 2856

DILUPBiCGStab:  Solving for Ux, Initial residual = 2.71284e-06, Final residual = 8.54306e-11, No Iterations 3
DILUPBiCGStab:  Solving for Uy, Initial residual = 4.51024e-06, Final residual = 5.06712e-11, No Iterations 4
Pressure gradient source: uncorrected Ubar = 0.020188, pressure gradient = 8.21687e-06
GAMG:  Solving for p, Initial residual = 5.16472e-06, Final residual = 1.72994e-07, No Iterations 5
GAMG:  Solving for p, Initial residual = 2.17102e-06, Final residual = 9.90542e-08, No Iterations 3
time step continuity errors : sum local = 1.63956e-11, global = -1.4139e-19, cumulative = 1.57378e-16
Pressure gradient source: uncorrected Ubar = 0.020188, pressure gradient = 8.21596e-06
DILUPBiCGStab:  Solving for omega, Initial residual = 4.16757e-09, Final residual = 6.11688e-11, No Iterations 1
DILUPBiCGStab:  Solving for k, Initial residual = 1.00453e-05, Final residual = 3.49521e-11, No Iterations 4
ExecutionTime = 39.55 s  ClockTime = 40 s

Time = 2857

DILUPBiCGStab:  Solving for Ux, Initial residual = 2.71054e-06, Final residual = 8.53803e-11, No Iterations 3
DILUPBiCGStab:  Solving for Uy, Initial residual = 4.50664e-06, Final residual = 5.06444e-11, No Iterations 4
Pressure gradient source: uncorrected Ubar = 0.020188, pressure gradient = 8.21683e-06
GAMG:  Solving for p, Initial residual = 5.15993e-06, Final residual = 1.7287e-07, No Iterations 5
GAMG:  Solving for p, Initial residual = 2.16921e-06, Final residual = 9.89929e-08, No Iterations 3
time step continuity errors : sum local = 1.63853e-11, global = 3.0281e-20, cumulative = 1.57409e-16
Pressure gradient source: uncorrected Ubar = 0.020188, pressure gradient = 8.21591e-06
DILUPBiCGStab:  Solving for omega, Initial residual = 4.16131e-09, Final residual = 6.10808e-11, No Iterations 1
DILUPBiCGStab:  Solving for k, Initial residual = 1.00182e-05, Final residual = 3.48559e-11, No Iterations 4
ExecutionTime = 39.56 s  ClockTime = 40 s

Time = 2858

DILUPBiCGStab:  Solving for Ux, Initial residual = 2.70824e-06, Final residual = 8.533e-11, No Iterations 3
DILUPBiCGStab:  Solving for Uy, Initial residual = 4.50304e-06, Final residual = 5.06175e-11, No Iterations 4
Pressure gradient source: uncorrected Ubar = 0.020188, pressure gradient = 8.21678e-06
GAMG:  Solving for p, Initial residual = 5.15516e-06, Final residual = 1.72745e-07, No Iterations 5
GAMG:  Solving for p, Initial residual = 2.1674e-06, Final residual = 9.89313e-08, No Iterations 3
time step continuity errors : sum local = 1.63749e-11, global = -2.44129e-19, cumulative = 1.57165e-16
Pressure gradient source: uncorrected Ubar = 0.020188, pressure gradient = 8.21587e-06
DILUPBiCGStab:  Solving for omega, Initial residual = 4.15505e-09, Final residual = 6.09927e-11, No Iterations 1
DILUPBiCGStab:  Solving for k, Initial residual = 9.99118e-06, Final residual = 3.47598e-11, No Iterations 4
ExecutionTime = 39.58 s  ClockTime = 40 s


SIMPLE solution converged in 2858 iterations

End

Finalising parallel run
