/*---------------------------------------------------------------------------*\
| =========                 |                                                 |
| \\      /  F ield         | OpenFOAM: The Open Source CFD Toolbox           |
|  \\    /   O peration     | Version:  2112                                  |
|   \\  /    A nd           | Website:  www.openfoam.com                      |
|    \\/     M anipulation  |                                                 |
\*---------------------------------------------------------------------------*/
Build  : _6e1fca0e-20220610 OPENFOAM=2112 patch=220610 version=2112
Arch   : "LSB;label=32;scalar=64"
Exec   : simpleFoam -parallel -case airfoil_tuner
Date   : Jul 02 2022
Time   : 10:30:35
Host   : pop-os
PID    : 8874
I/O    : uncollated
Case   : /home/ryley/ML/turborans/examples/openfoam_airfoil/airfoil_tuner
nProcs : 8
Hosts  :
(
    (pop-os 8)
)
Pstream initialized with:
    floatTransfer      : 0
    nProcsSimpleSum    : 0
    commsType          : nonBlocking
    polling iterations : 0
trapFpe: Floating point exception trapping enabled (FOAM_SIGFPE).
fileModificationChecking : Monitoring run-time modified files using timeStampMaster (fileModificationSkew 5, maxFileModificationPolls 20)
allowSystemOperations : Allowing user-supplied system call operations

// * * * * * * * * * * * * * * * * * * * * * * * * * * * * * * * * * * * * * //
Create time

Create mesh for time = 0


SIMPLE: convergence criteria
    field p	 tolerance 1e-06
    field U	 tolerance 1e-06
    field "(U|k|epsilon|omega|nuTilda|phit)"	 tolerance 1e-06

Reading field p

Reading field U

Reading/calculating face flux field phi

Selecting incompressible transport model Newtonian
Selecting turbulence model type RAS
Selecting RAS turbulence model kOmegaSST
Selecting patchDistMethod meshWave
RAS
{
    RASModel        kOmegaSST;
    turbulence      on;
    printCoeffs     on;
    betaStar        0.0874286;
    a1              0.260051;
    alphaK1         0.85;
    alphaK2         1;
    alphaOmega1     0.5;
    alphaOmega2     0.856;
    gamma1          0.555556;
    gamma2          0.44;
    beta1           0.075;
    beta2           0.0828;
    b1              1;
    c1              10;
    F3              false;
    decayControl    false;
    kInf            0;
    omegaInf        0;
}

No MRF models present

No finite volume options present

Starting time loop

forceCoeffs forceCoeffs1:
    p: p
    U: U
    rho: rhoInf
    Freestream density (rhoInf) set to 1000
    Reference pressure (pRef) set to 0
    Not including porosity effects

Time = 1

DILUPBiCGStab:  Solving for Ux, Initial residual = 3.09403e-06, Final residual = 4.31994e-11, No Iterations 3
DILUPBiCGStab:  Solving for Uz, Initial residual = 1.18392e-06, Final residual = 5.29189e-11, No Iterations 3
GAMG:  Solving for p, Initial residual = 0.000130677, Final residual = 1.03599e-05, No Iterations 4
GAMG:  Solving for p, Initial residual = 1.07788e-05, Final residual = 1.05875e-06, No Iterations 10
time step continuity errors : sum local = 4.34263e-08, global = 1.92763e-09, cumulative = 1.39866e-06
DILUPBiCGStab:  Solving for omega, Initial residual = 1.14813e-08, Final residual = 4.88792e-11, No Iterations 1
DILUPBiCGStab:  Solving for k, Initial residual = 2.084e-06, Final residual = 4.98726e-11, No Iterations 3
ExecutionTime = 0.08 s  ClockTime = 0 s

forceCoeffs forceCoeffs1 execute:
    Coefficients
        Cd       : 0.00918552	(pressure: 0.00318676	viscous: 0.00599877)
        Cs       : -1.0144e-21	(pressure: -8.43617e-21	viscous: 7.42177e-21)
        Cl       : 1.1032	(pressure: 1.10317	viscous: 3.04592e-05)
        CmRoll       : -0.551599	(pressure: -0.551584	viscous: -1.52296e-05)
        CmPitch       : -0.265606	(pressure: -0.265608	viscous: 2.5003e-06)
        CmYaw       : 0.00459276	(pressure: 0.00159338	viscous: 0.00299938)
        Cd(f)    : -0.547006
        Cd(r)    : 0.556192
        Cs(f)    : 0.00459276
        Cs(r)    : -0.00459276
        Cl(f)    : 0.285993
        Cl(r)    : 0.817205
Time = 2

DILUPBiCGStab:  Solving for Ux, Initial residual = 1.66952e-06, Final residual = 4.73762e-11, No Iterations 3
DILUPBiCGStab:  Solving for Uz, Initial residual = 5.15029e-06, Final residual = 4.37446e-11, No Iterations 4
GAMG:  Solving for p, Initial residual = 6.42217e-05, Final residual = 5.57647e-06, No Iterations 4
GAMG:  Solving for p, Initial residual = 5.84743e-06, Final residual = 5.44306e-07, No Iterations 9
time step continuity errors : sum local = 2.23333e-08, global = 1.62467e-09, cumulative = 1.40028e-06
DILUPBiCGStab:  Solving for omega, Initial residual = 1.01251e-08, Final residual = 5.73691e-11, No Iterations 1
DILUPBiCGStab:  Solving for k, Initial residual = 1.98644e-06, Final residual = 4.06052e-11, No Iterations 3
ExecutionTime = 0.1 s  ClockTime = 0 s

forceCoeffs forceCoeffs1 execute:
    Coefficients
        Cd       : 0.00910845	(pressure: 0.00314491	viscous: 0.00596354)
        Cs       : -1.014e-21	(pressure: -8.43685e-21	viscous: 7.42285e-21)
        Cl       : 1.10316	(pressure: 1.10314	viscous: 2.12407e-05)
        CmRoll       : -0.551579	(pressure: -0.551568	viscous: -1.06204e-05)
        CmPitch       : -0.265546	(pressure: -0.265549	viscous: 2.32447e-06)
        CmYaw       : 0.00455422	(pressure: 0.00157245	viscous: 0.00298177)
        Cd(f)    : -0.547024
        Cd(r)    : 0.556133
        Cs(f)    : 0.00455422
        Cs(r)    : -0.00455422
        Cl(f)    : 0.286032
        Cl(r)    : 0.817125
Time = 3

DILUPBiCGStab:  Solving for Ux, Initial residual = 8.59389e-07, Final residual = 2.86223e-12, No Iterations 4
DILUPBiCGStab:  Solving for Uz, Initial residual = 2.63743e-06, Final residual = 2.06699e-11, No Iterations 4
GAMG:  Solving for p, Initial residual = 5.36914e-05, Final residual = 5.06783e-06, No Iterations 4
GAMG:  Solving for p, Initial residual = 5.29834e-06, Final residual = 4.29769e-07, No Iterations 10
time step continuity errors : sum local = 1.76405e-08, global = -1.87999e-09, cumulative = 1.3984e-06
DILUPBiCGStab:  Solving for omega, Initial residual = 1.03145e-08, Final residual = 6.24082e-11, No Iterations 1
DILUPBiCGStab:  Solving for k, Initial residual = 1.91964e-06, Final residual = 3.44634e-11, No Iterations 3
ExecutionTime = 0.12 s  ClockTime = 1 s

forceCoeffs forceCoeffs1 execute:
    Coefficients
        Cd       : 0.00900359	(pressure: 0.0030913	viscous: 0.00591229)
        Cs       : -1.01355e-21	(pressure: -8.43836e-21	viscous: 7.42481e-21)
        Cl       : 1.10323	(pressure: 1.10322	viscous: 1.29796e-05)
        CmRoll       : -0.551614	(pressure: -0.551608	viscous: -6.4898e-06)
        CmPitch       : -0.265513	(pressure: -0.265515	viscous: 2.12864e-06)
        CmYaw       : 0.0045018	(pressure: 0.00154565	viscous: 0.00295615)
        Cd(f)    : -0.547113
        Cd(r)    : 0.556116
        Cs(f)    : 0.0045018
        Cs(r)    : -0.0045018
        Cl(f)    : 0.286102
        Cl(r)    : 0.817127
Time = 4

DILUPBiCGStab:  Solving for Ux, Initial residual = 5.68423e-07, Final residual = 9.64091e-11, No Iterations 3
DILUPBiCGStab:  Solving for Uz, Initial residual = 1.37452e-06, Final residual = 1.18897e-11, No Iterations 4
GAMG:  Solving for p, Initial residual = 4.69271e-05, Final residual = 4.18908e-06, No Iterations 4
GAMG:  Solving for p, Initial residual = 4.39903e-06, Final residual = 3.97731e-07, No Iterations 10
time step continuity errors : sum local = 1.63318e-08, global = -1.526e-09, cumulative = 1.39688e-06
DILUPBiCGStab:  Solving for omega, Initial residual = 9.62988e-09, Final residual = 6.70841e-11, No Iterations 1
DILUPBiCGStab:  Solving for k, Initial residual = 1.85799e-06, Final residual = 2.95056e-11, No Iterations 3
bounding k, min: -1.18768e-05 max: 91.0862 average: 1.96118
ExecutionTime = 0.13 s  ClockTime = 1 s

forceCoeffs forceCoeffs1 execute:
    Coefficients
        Cd       : 0.00888412	(pressure: 0.00303549	viscous: 0.00584863)
        Cs       : -1.01309e-21	(pressure: -8.44012e-21	viscous: 7.42703e-21)
        Cl       : 1.10336	(pressure: 1.10336	viscous: 6.59844e-06)
        CmRoll       : -0.551682	(pressure: -0.551679	viscous: -3.29922e-06)
        CmPitch       : -0.265501	(pressure: -0.265503	viscous: 1.9519e-06)
        CmYaw       : 0.00444206	(pressure: 0.00151774	viscous: 0.00292431)
        Cd(f)    : -0.54724
        Cd(r)    : 0.556124
        Cs(f)    : 0.00444206
        Cs(r)    : -0.00444206
        Cl(f)    : 0.286181
        Cl(r)    : 0.817183
Time = 5

DILUPBiCGStab:  Solving for Ux, Initial residual = 6.30596e-07, Final residual = 1.88834e-11, No Iterations 3
DILUPBiCGStab:  Solving for Uz, Initial residual = 1.71038e-06, Final residual = 1.93962e-11, No Iterations 3
GAMG:  Solving for p, Initial residual = 4.08237e-05, Final residual = 3.28434e-06, No Iterations 4
GAMG:  Solving for p, Initial residual = 3.46635e-06, Final residual = 3.07163e-07, No Iterations 12
time step continuity errors : sum local = 1.26168e-08, global = -5.41697e-10, cumulative = 1.39633e-06
DILUPBiCGStab:  Solving for omega, Initial residual = 9.29452e-09, Final residual = 6.76461e-11, No Iterations 1
DILUPBiCGStab:  Solving for k, Initial residual = 1.79624e-06, Final residual = 2.47975e-11, No Iterations 3
ExecutionTime = 0.14 s  ClockTime = 1 s

forceCoeffs forceCoeffs1 execute:
    Coefficients
        Cd       : 0.00875839	(pressure: 0.00298199	viscous: 0.00577639)
        Cs       : -1.01263e-21	(pressure: -8.44171e-21	viscous: 7.42908e-21)
        Cl       : 1.1035	(pressure: 1.1035	viscous: 2.22192e-06)
        CmRoll       : -0.551752	(pressure: -0.551751	viscous: -1.11096e-06)
        CmPitch       : -0.265499	(pressure: -0.265501	viscous: 1.82157e-06)
        CmYaw       : 0.00437919	(pressure: 0.001491	viscous: 0.0028882)
        Cd(f)    : -0.547373
        Cd(r)    : 0.556131
        Cs(f)    : 0.00437919
        Cs(r)    : -0.00437919
        Cl(f)    : 0.286253
        Cl(r)    : 0.817251
Time = 6

DILUPBiCGStab:  Solving for Ux, Initial residual = 6.93261e-07, Final residual = 9.66762e-11, No Iterations 3
DILUPBiCGStab:  Solving for Uz, Initial residual = 2.42989e-06, Final residual = 7.81564e-11, No Iterations 3
GAMG:  Solving for p, Initial residual = 3.5707e-05, Final residual = 3.32756e-06, No Iterations 3
GAMG:  Solving for p, Initial residual = 3.46411e-06, Final residual = 3.43089e-07, No Iterations 13
time step continuity errors : sum local = 1.40929e-08, global = -4.55125e-10, cumulative = 1.39588e-06
DILUPBiCGStab:  Solving for omega, Initial residual = 9.17625e-09, Final residual = 6.48953e-11, No Iterations 1
DILUPBiCGStab:  Solving for k, Initial residual = 1.73406e-06, Final residual = 2.03526e-11, No Iterations 3
ExecutionTime = 0.15 s  ClockTime = 1 s

forceCoeffs forceCoeffs1 execute:
    Coefficients
        Cd       : 0.00863122	(pressure: 0.00293228	viscous: 0.00569894)
        Cs       : -1.01219e-21	(pressure: -8.44291e-21	viscous: 7.43072e-21)
        Cl       : 1.1036	(pressure: 1.1036	viscous: -3.53563e-07)
        CmRoll       : -0.551801	(pressure: -0.551801	viscous: 1.76782e-07)
        CmPitch       : -0.265491	(pressure: -0.265492	viscous: 1.75192e-06)
        CmYaw       : 0.00431561	(pressure: 0.00146614	viscous: 0.00284947)
        Cd(f)    : -0.547485
        Cd(r)    : 0.556116
        Cs(f)    : 0.00431561
        Cs(r)    : -0.00431561
        Cl(f)    : 0.28631
        Cl(r)    : 0.817291
Time = 7

DILUPBiCGStab:  Solving for Ux, Initial residual = 6.68233e-07, Final residual = 7.09062e-11, No Iterations 3
DILUPBiCGStab:  Solving for Uz, Initial residual = 2.71392e-06, Final residual = 1.15269e-11, No Iterations 4
GAMG:  Solving for p, Initial residual = 3.19438e-05, Final residual = 2.50581e-06, No Iterations 4
GAMG:  Solving for p, Initial residual = 2.64545e-06, Final residual = 2.50083e-07, No Iterations 17
time step continuity errors : sum local = 1.02743e-08, global = -2.8555e-10, cumulative = 1.39559e-06
DILUPBiCGStab:  Solving for omega, Initial residual = 9.0367e-09, Final residual = 6.19021e-11, No Iterations 1
DILUPBiCGStab:  Solving for k, Initial residual = 1.672e-06, Final residual = 1.76531e-11, No Iterations 3
ExecutionTime = 0.16 s  ClockTime = 1 s

forceCoeffs forceCoeffs1 execute:
    Coefficients
        Cd       : 0.0085052	(pressure: 0.0028863	viscous: 0.00561889)
        Cs       : -1.01176e-21	(pressure: -8.44368e-21	viscous: 7.43191e-21)
        Cl       : 1.10364	(pressure: 1.10364	viscous: -1.45028e-06)
        CmRoll       : -0.551819	(pressure: -0.55182	viscous: 7.2514e-07)
        CmPitch       : -0.265469	(pressure: -0.265471	viscous: 1.747e-06)
        CmYaw       : 0.0042526	(pressure: 0.00144315	viscous: 0.00280945)
        Cd(f)    : -0.547566
        Cd(r)    : 0.556072
        Cs(f)    : 0.0042526
        Cs(r)    : -0.0042526
        Cl(f)    : 0.28635
        Cl(r)    : 0.817288
Time = 8

DILUPBiCGStab:  Solving for Ux, Initial residual = 5.83789e-07, Final residual = 6.50317e-11, No Iterations 3
DILUPBiCGStab:  Solving for Uz, Initial residual = 2.65323e-06, Final residual = 9.99758e-12, No Iterations 4
GAMG:  Solving for p, Initial residual = 2.90933e-05, Final residual = 2.694e-06, No Iterations 4
GAMG:  Solving for p, Initial residual = 2.81518e-06, Final residual = 2.71443e-07, No Iterations 15
time step continuity errors : sum local = 1.11517e-08, global = -2.5774e-10, cumulative = 1.39534e-06
DILUPBiCGStab:  Solving for omega, Initial residual = 8.1881e-09, Final residual = 6.42324e-11, No Iterations 1
DILUPBiCGStab:  Solving for k, Initial residual = 1.61059e-06, Final residual = 1.751e-11, No Iterations 3
ExecutionTime = 0.17 s  ClockTime = 1 s

forceCoeffs forceCoeffs1 execute:
    Coefficients
        Cd       : 0.00838246	(pressure: 0.00284426	viscous: 0.0055382)
        Cs       : -1.01139e-21	(pressure: -8.44414e-21	viscous: 7.43275e-21)
        Cl       : 1.10362	(pressure: 1.10362	viscous: -1.37272e-06)
        CmRoll       : -0.551809	(pressure: -0.55181	viscous: 6.8636e-07)
        CmPitch       : -0.265433	(pressure: -0.265435	viscous: 1.80408e-06)
        CmYaw       : 0.00419123	(pressure: 0.00142213	viscous: 0.0027691)
        Cd(f)    : -0.547618
        Cd(r)    : 0.556
        Cs(f)    : 0.00419123
        Cs(r)    : -0.00419123
        Cl(f)    : 0.286376
        Cl(r)    : 0.817242
Time = 9

DILUPBiCGStab:  Solving for Ux, Initial residual = 5.14128e-07, Final residual = 5.64836e-11, No Iterations 3
DILUPBiCGStab:  Solving for Uz, Initial residual = 2.43393e-06, Final residual = 6.61797e-11, No Iterations 3
GAMG:  Solving for p, Initial residual = 2.66005e-05, Final residual = 2.49785e-06, No Iterations 4
GAMG:  Solving for p, Initial residual = 2.60736e-06, Final residual = 2.451e-07, No Iterations 14
time step continuity errors : sum local = 1.00692e-08, global = -6.86674e-12, cumulative = 1.39533e-06
DILUPBiCGStab:  Solving for omega, Initial residual = 7.82969e-09, Final residual = 6.21383e-11, No Iterations 1
DILUPBiCGStab:  Solving for k, Initial residual = 1.55003e-06, Final residual = 1.88464e-11, No Iterations 3
ExecutionTime = 0.18 s  ClockTime = 1 s

forceCoeffs forceCoeffs1 execute:
    Coefficients
        Cd       : 0.00826477	(pressure: 0.00280655	viscous: 0.00545821)
        Cs       : -1.01108e-21	(pressure: -8.44443e-21	viscous: 7.43336e-21)
        Cl       : 1.10357	(pressure: 1.10357	viscous: -3.85323e-07)
        CmRoll       : -0.551783	(pressure: -0.551783	viscous: 1.92661e-07)
        CmPitch       : -0.265388	(pressure: -0.26539	viscous: 1.91618e-06)
        CmYaw       : 0.00413238	(pressure: 0.00140328	viscous: 0.00272911)
        Cd(f)    : -0.54765
        Cd(r)    : 0.555915
        Cs(f)    : 0.00413238
        Cs(r)    : -0.00413238
        Cl(f)    : 0.286395
        Cl(r)    : 0.81717
Time = 10

DILUPBiCGStab:  Solving for Ux, Initial residual = 4.95684e-07, Final residual = 4.26441e-11, No Iterations 3
DILUPBiCGStab:  Solving for Uz, Initial residual = 2.18375e-06, Final residual = 3.20705e-11, No Iterations 3
GAMG:  Solving for p, Initial residual = 2.42134e-05, Final residual = 1.95993e-06, No Iterations 4
GAMG:  Solving for p, Initial residual = 2.05875e-06, Final residual = 1.90612e-07, No Iterations 14
time step continuity errors : sum local = 7.83067e-09, global = 1.72515e-10, cumulative = 1.3955e-06
DILUPBiCGStab:  Solving for omega, Initial residual = 7.48934e-09, Final residual = 5.98735e-11, No Iterations 1
DILUPBiCGStab:  Solving for k, Initial residual = 1.49028e-06, Final residual = 2.17962e-11, No Iterations 3
ExecutionTime = 0.19 s  ClockTime = 1 s

forceCoeffs forceCoeffs1 execute:
    Coefficients
        Cd       : 0.00815352	(pressure: 0.00277369	viscous: 0.00537983)
        Cs       : -1.01084e-21	(pressure: -8.44472e-21	viscous: 7.43388e-21)
        Cl       : 1.10351	(pressure: 1.10351	viscous: 1.30792e-06)
        CmRoll       : -0.551753	(pressure: -0.551753	viscous: -6.53961e-07)
        CmPitch       : -0.265343	(pressure: -0.265345	viscous: 2.07368e-06)
        CmYaw       : 0.00407676	(pressure: 0.00138685	viscous: 0.00268991)
        Cd(f)    : -0.547676
        Cd(r)    : 0.55583
        Cs(f)    : 0.00407676
        Cs(r)    : -0.00407676
        Cl(f)    : 0.286411
        Cl(r)    : 0.817096
Time = 11

DILUPBiCGStab:  Solving for Ux, Initial residual = 5.12385e-07, Final residual = 3.07837e-11, No Iterations 3
DILUPBiCGStab:  Solving for Uz, Initial residual = 2.00109e-06, Final residual = 1.50126e-11, No Iterations 3
GAMG:  Solving for p, Initial residual = 2.20176e-05, Final residual = 1.47619e-06, No Iterations 4
GAMG:  Solving for p, Initial residual = 1.56383e-06, Final residual = 1.5464e-07, No Iterations 13
time step continuity errors : sum local = 6.35301e-09, global = 1.74715e-10, cumulative = 1.39568e-06
DILUPBiCGStab:  Solving for omega, Initial residual = 7.17502e-09, Final residual = 5.76362e-11, No Iterations 1
DILUPBiCGStab:  Solving for k, Initial residual = 1.4328e-06, Final residual = 2.50022e-11, No Iterations 3
ExecutionTime = 0.19 s  ClockTime = 1 s

forceCoeffs forceCoeffs1 execute:
    Coefficients
        Cd       : 0.00804975	(pressure: 0.00274614	viscous: 0.0053036)
        Cs       : -1.01067e-21	(pressure: -8.44508e-21	viscous: 7.43441e-21)
        Cl       : 1.10347	(pressure: 1.10346	viscous: 3.54964e-06)
        CmRoll       : -0.551733	(pressure: -0.551731	viscous: -1.77482e-06)
        CmPitch       : -0.265304	(pressure: -0.265307	viscous: 2.26583e-06)
        CmYaw       : 0.00402487	(pressure: 0.00137307	viscous: 0.0026518)
        Cd(f)    : -0.547708
        Cd(r)    : 0.555758
        Cs(f)    : 0.00402487
        Cs(r)    : -0.00402487
        Cl(f)    : 0.286428
        Cl(r)    : 0.817037
Time = 12

DILUPBiCGStab:  Solving for Ux, Initial residual = 5.19425e-07, Final residual = 9.91984e-11, No Iterations 2
DILUPBiCGStab:  Solving for Uz, Initial residual = 1.89021e-06, Final residual = 3.32886e-11, No Iterations 3
GAMG:  Solving for p, Initial residual = 2.01856e-05, Final residual = 1.8555e-06, No Iterations 3
GAMG:  Solving for p, Initial residual = 1.92674e-06, Final residual = 1.8845e-07, No Iterations 12
time step continuity errors : sum local = 7.74207e-09, global = 2.49606e-10, cumulative = 1.39593e-06
DILUPBiCGStab:  Solving for omega, Initial residual = 1.07046e-08, Final residual = 5.1125e-11, No Iterations 1
DILUPBiCGStab:  Solving for k, Initial residual = 1.37694e-06, Final residual = 2.78871e-11, No Iterations 3
ExecutionTime = 0.2 s  ClockTime = 1 s

forceCoeffs forceCoeffs1 execute:
    Coefficients
        Cd       : 0.00795338	(pressure: 0.0027235	viscous: 0.00522988)
        Cs       : -1.01056e-21	(pressure: -8.44556e-21	viscous: 7.435e-21)
        Cl       : 1.10346	(pressure: 1.10345	viscous: 6.22455e-06)
        CmRoll       : -0.551728	(pressure: -0.551725	viscous: -3.11227e-06)
        CmPitch       : -0.265278	(pressure: -0.26528	viscous: 2.48221e-06)
        CmYaw       : 0.00397669	(pressure: 0.00136175	viscous: 0.00261494)
        Cd(f)    : -0.547751
        Cd(r)    : 0.555704
        Cs(f)    : 0.00397669
        Cs(r)    : -0.00397669
        Cl(f)    : 0.28645
        Cl(r)    : 0.817006
Time = 13

DILUPBiCGStab:  Solving for Ux, Initial residual = 5.13217e-07, Final residual = 9.99802e-11, No Iterations 2
DILUPBiCGStab:  Solving for Uz, Initial residual = 1.84638e-06, Final residual = 2.42126e-11, No Iterations 3
GAMG:  Solving for p, Initial residual = 1.86749e-05, Final residual = 1.81815e-06, No Iterations 3
GAMG:  Solving for p, Initial residual = 1.88268e-06, Final residual = 1.8661e-07, No Iterations 13
time step continuity errors : sum local = 7.66707e-09, global = 2.48217e-10, cumulative = 1.39617e-06
DILUPBiCGStab:  Solving for omega, Initial residual = 7.28584e-09, Final residual = 5.03538e-11, No Iterations 1
DILUPBiCGStab:  Solving for k, Initial residual = 1.3231e-06, Final residual = 3.07713e-11, No Iterations 3
ExecutionTime = 0.21 s  ClockTime = 1 s

forceCoeffs forceCoeffs1 execute:
    Coefficients
        Cd       : 0.00786267	(pressure: 0.00270384	viscous: 0.00515883)
        Cs       : -1.01048e-21	(pressure: -8.44615e-21	viscous: 7.43567e-21)
        Cl       : 1.10347	(pressure: 1.10346	viscous: 9.24477e-06)
        CmRoll       : -0.551737	(pressure: -0.551732	viscous: -4.62239e-06)
        CmPitch       : -0.265261	(pressure: -0.265263	viscous: 2.71345e-06)
        CmYaw       : 0.00393133	(pressure: 0.00135192	viscous: 0.00257941)
        Cd(f)    : -0.547805
        Cd(r)    : 0.555668
        Cs(f)    : 0.00393133
        Cs(r)    : -0.00393133
        Cl(f)    : 0.286476
        Cl(r)    : 0.816998
Time = 14

DILUPBiCGStab:  Solving for Ux, Initial residual = 4.89649e-07, Final residual = 2.15788e-11, No Iterations 3
DILUPBiCGStab:  Solving for Uz, Initial residual = 1.83034e-06, Final residual = 1.99995e-11, No Iterations 3
GAMG:  Solving for p, Initial residual = 1.7437e-05, Final residual = 1.44078e-06, No Iterations 4
GAMG:  Solving for p, Initial residual = 1.50853e-06, Final residual = 1.43339e-07, No Iterations 16
time step continuity errors : sum local = 5.89019e-09, global = 1.71831e-10, cumulative = 1.39635e-06
DILUPBiCGStab:  Solving for omega, Initial residual = 6.42033e-09, Final residual = 5.0719e-11, No Iterations 1
DILUPBiCGStab:  Solving for k, Initial residual = 1.27091e-06, Final residual = 3.38994e-11, No Iterations 3
ExecutionTime = 0.22 s  ClockTime = 1 s

forceCoeffs forceCoeffs1 execute:
    Coefficients
        Cd       : 0.00777577	(pressure: 0.00268524	viscous: 0.00509053)
        Cs       : -1.0104e-21	(pressure: -8.44681e-21	viscous: 7.43642e-21)
        Cl       : 1.10351	(pressure: 1.1035	viscous: 1.25398e-05)
        CmRoll       : -0.551756	(pressure: -0.55175	viscous: -6.26989e-06)
        CmPitch       : -0.26525	(pressure: -0.265253	viscous: 2.95087e-06)
        CmYaw       : 0.00388788	(pressure: 0.00134262	viscous: 0.00254527)
        Cd(f)    : -0.547868
        Cd(r)    : 0.555644
        Cs(f)    : 0.00388788
        Cs(r)    : -0.00388788
        Cl(f)    : 0.286506
        Cl(r)    : 0.817006
Time = 15

DILUPBiCGStab:  Solving for Ux, Initial residual = 4.57927e-07, Final residual = 2.42161e-11, No Iterations 3
DILUPBiCGStab:  Solving for Uz, Initial residual = 1.83044e-06, Final residual = 2.05663e-11, No Iterations 3
GAMG:  Solving for p, Initial residual = 1.63139e-05, Final residual = 1.3379e-06, No Iterations 4
GAMG:  Solving for p, Initial residual = 1.40298e-06, Final residual = 1.3475e-07, No Iterations 16
time step continuity errors : sum local = 5.53785e-09, global = 1.36279e-10, cumulative = 1.39648e-06
DILUPBiCGStab:  Solving for omega, Initial residual = 6.0566e-09, Final residual = 4.88226e-11, No Iterations 1
DILUPBiCGStab:  Solving for k, Initial residual = 1.22041e-06, Final residual = 3.77005e-11, No Iterations 3
ExecutionTime = 0.23 s  ClockTime = 1 s

forceCoeffs forceCoeffs1 execute:
    Coefficients
        Cd       : 0.00769126	(pressure: 0.00266629	viscous: 0.00502497)
        Cs       : -1.01031e-21	(pressure: -8.4475e-21	viscous: 7.4372e-21)
        Cl       : 1.10356	(pressure: 1.10354	viscous: 1.60495e-05)
        CmRoll       : -0.551779	(pressure: -0.551771	viscous: -8.02476e-06)
        CmPitch       : -0.265241	(pressure: -0.265244	viscous: 3.18732e-06)
        CmYaw       : 0.00384563	(pressure: 0.00133314	viscous: 0.00251249)
        Cd(f)    : -0.547934
        Cd(r)    : 0.555625
        Cs(f)    : 0.00384563
        Cs(r)    : -0.00384563
        Cl(f)    : 0.286539
        Cl(r)    : 0.81702
Time = 16

DILUPBiCGStab:  Solving for Ux, Initial residual = 4.28446e-07, Final residual = 2.6261e-11, No Iterations 3
DILUPBiCGStab:  Solving for Uz, Initial residual = 1.83069e-06, Final residual = 2.11542e-11, No Iterations 3
GAMG:  Solving for p, Initial residual = 1.52417e-05, Final residual = 1.10312e-06, No Iterations 4
GAMG:  Solving for p, Initial residual = 1.16614e-06, Final residual = 1.11326e-07, No Iterations 16
time step continuity errors : sum local = 4.57562e-09, global = 8.09925e-11, cumulative = 1.39656e-06
DILUPBiCGStab:  Solving for omega, Initial residual = 5.76441e-09, Final residual = 4.67953e-11, No Iterations 1
DILUPBiCGStab:  Solving for k, Initial residual = 1.17137e-06, Final residual = 4.17273e-11, No Iterations 3
ExecutionTime = 0.24 s  ClockTime = 1 s

forceCoeffs forceCoeffs1 execute:
    Coefficients
        Cd       : 0.00760796	(pressure: 0.00264585	viscous: 0.00496211)
        Cs       : -1.01018e-21	(pressure: -8.44817e-21	viscous: 7.43799e-21)
        Cl       : 1.1036	(pressure: 1.10358	viscous: 1.97177e-05)
        CmRoll       : -0.551801	(pressure: -0.551792	viscous: -9.85884e-06)
        CmPitch       : -0.265229	(pressure: -0.265232	viscous: 3.41697e-06)
        CmYaw       : 0.00380398	(pressure: 0.00132293	viscous: 0.00248105)
        Cd(f)    : -0.547997
        Cd(r)    : 0.555605
        Cs(f)    : 0.00380398
        Cs(r)    : -0.00380398
        Cl(f)    : 0.286573
        Cl(r)    : 0.81703
Time = 17

DILUPBiCGStab:  Solving for Ux, Initial residual = 4.11619e-07, Final residual = 3.23393e-11, No Iterations 3
DILUPBiCGStab:  Solving for Uz, Initial residual = 1.82321e-06, Final residual = 1.84556e-11, No Iterations 3
GAMG:  Solving for p, Initial residual = 1.43452e-05, Final residual = 1.33573e-06, No Iterations 3
GAMG:  Solving for p, Initial residual = 1.38956e-06, Final residual = 1.27189e-07, No Iterations 14
time step continuity errors : sum local = 5.22771e-09, global = 6.79731e-11, cumulative = 1.39663e-06
DILUPBiCGStab:  Solving for omega, Initial residual = 5.55339e-09, Final residual = 4.49096e-11, No Iterations 1
DILUPBiCGStab:  Solving for k, Initial residual = 1.12447e-06, Final residual = 4.56513e-11, No Iterations 3
ExecutionTime = 0.25 s  ClockTime = 1 s

forceCoeffs forceCoeffs1 execute:
    Coefficients
        Cd       : 0.00752542	(pressure: 0.00262358	viscous: 0.00490184)
        Cs       : -1.01003e-21	(pressure: -8.4488e-21	viscous: 7.43876e-21)
        Cl       : 1.10364	(pressure: 1.10361	viscous: 2.35005e-05)
        CmRoll       : -0.551818	(pressure: -0.551807	viscous: -1.17503e-05)
        CmPitch       : -0.265211	(pressure: -0.265215	viscous: 3.63471e-06)
        CmYaw       : 0.00376271	(pressure: 0.00131179	viscous: 0.00245092)
        Cd(f)    : -0.548056
        Cd(r)    : 0.555581
        Cs(f)    : 0.00376271
        Cs(r)    : -0.00376271
        Cl(f)    : 0.286607
        Cl(r)    : 0.81703
Time = 18

DILUPBiCGStab:  Solving for Ux, Initial residual = 3.99687e-07, Final residual = 4.35917e-11, No Iterations 3
DILUPBiCGStab:  Solving for Uz, Initial residual = 1.8068e-06, Final residual = 1.90108e-11, No Iterations 3
GAMG:  Solving for p, Initial residual = 1.35195e-05, Final residual = 1.16563e-06, No Iterations 3
GAMG:  Solving for p, Initial residual = 1.21867e-06, Final residual = 1.18027e-07, No Iterations 15
time step continuity errors : sum local = 4.85151e-09, global = -1.09805e-11, cumulative = 1.39662e-06
DILUPBiCGStab:  Solving for omega, Initial residual = 5.40836e-09, Final residual = 4.27961e-11, No Iterations 1
DILUPBiCGStab:  Solving for k, Initial residual = 1.08027e-06, Final residual = 4.93684e-11, No Iterations 3
ExecutionTime = 0.26 s  ClockTime = 1 s

forceCoeffs forceCoeffs1 execute:
    Coefficients
        Cd       : 0.00744383	(pressure: 0.00259974	viscous: 0.00484409)
        Cs       : -1.00986e-21	(pressure: -8.44937e-21	viscous: 7.4395e-21)
        Cl       : 1.10366	(pressure: 1.10363	viscous: 2.73645e-05)
        CmRoll       : -0.551829	(pressure: -0.551815	viscous: -1.36822e-05)
        CmPitch       : -0.265188	(pressure: -0.265192	viscous: 3.83595e-06)
        CmYaw       : 0.00372192	(pressure: 0.00129987	viscous: 0.00242204)
        Cd(f)    : -0.548107
        Cd(r)    : 0.555551
        Cs(f)    : 0.00372192
        Cs(r)    : -0.00372192
        Cl(f)    : 0.286641
        Cl(r)    : 0.817017
Time = 19

DILUPBiCGStab:  Solving for Ux, Initial residual = 3.85756e-07, Final residual = 5.91684e-11, No Iterations 3
DILUPBiCGStab:  Solving for Uz, Initial residual = 1.78378e-06, Final residual = 3.75194e-11, No Iterations 3
GAMG:  Solving for p, Initial residual = 1.27423e-05, Final residual = 1.04606e-06, No Iterations 3
GAMG:  Solving for p, Initial residual = 1.09753e-06, Final residual = 1.04563e-07, No Iterations 16
time step continuity errors : sum local = 4.29837e-09, global = -2.1219e-11, cumulative = 1.3966e-06
DILUPBiCGStab:  Solving for omega, Initial residual = 5.13211e-09, Final residual = 4.13746e-11, No Iterations 1
DILUPBiCGStab:  Solving for k, Initial residual = 1.03866e-06, Final residual = 5.27973e-11, No Iterations 3
ExecutionTime = 0.27 s  ClockTime = 1 s

forceCoeffs forceCoeffs1 execute:
    Coefficients
        Cd       : 0.00736394	(pressure: 0.0025752	viscous: 0.00478875)
        Cs       : -1.00969e-21	(pressure: -8.44988e-21	viscous: 7.44019e-21)
        Cl       : 1.10367	(pressure: 1.10364	viscous: 3.12882e-05)
        CmRoll       : -0.551834	(pressure: -0.551818	viscous: -1.56441e-05)
        CmPitch       : -0.265159	(pressure: -0.265163	viscous: 4.01612e-06)
        CmYaw       : 0.00368197	(pressure: 0.0012876	viscous: 0.00239437)
        Cd(f)    : -0.548152
        Cd(r)    : 0.555516
        Cs(f)    : 0.00368197
        Cs(r)    : -0.00368197
        Cl(f)    : 0.286674
        Cl(r)    : 0.816993
Time = 20

DILUPBiCGStab:  Solving for Ux, Initial residual = 3.68441e-07, Final residual = 7.48725e-11, No Iterations 3
DILUPBiCGStab:  Solving for Uz, Initial residual = 1.75931e-06, Final residual = 5.19713e-11, No Iterations 3
GAMG:  Solving for p, Initial residual = 1.20113e-05, Final residual = 9.39814e-07, No Iterations 3
GAMG:  Solving for p, Initial residual = 9.90022e-07, Final residual = 9.29177e-08, No Iterations 16
time step continuity errors : sum local = 3.81989e-09, global = -2.94081e-11, cumulative = 1.39657e-06
DILUPBiCGStab:  Solving for omega, Initial residual = 4.87571e-09, Final residual = 3.98322e-11, No Iterations 1
DILUPBiCGStab:  Solving for k, Initial residual = 1.00045e-06, Final residual = 5.57137e-11, No Iterations 3
ExecutionTime = 0.28 s  ClockTime = 1 s

forceCoeffs forceCoeffs1 execute:
    Coefficients
        Cd       : 0.00728669	(pressure: 0.00255097	viscous: 0.00473572)
        Cs       : -1.00952e-21	(pressure: -8.45035e-21	viscous: 7.44083e-21)
        Cl       : 1.10367	(pressure: 1.10363	viscous: 3.52564e-05)
        CmRoll       : -0.551834	(pressure: -0.551817	viscous: -1.76282e-05)
        CmPitch       : -0.265128	(pressure: -0.265132	viscous: 4.17114e-06)
        CmYaw       : 0.00364335	(pressure: 0.00127549	viscous: 0.00236786)
        Cd(f)    : -0.548191
        Cd(r)    : 0.555478
        Cs(f)    : 0.00364335
        Cs(r)    : -0.00364335
        Cl(f)    : 0.286706
        Cl(r)    : 0.816962
Time = 21

DILUPBiCGStab:  Solving for Ux, Initial residual = 3.53709e-07, Final residual = 8.60078e-11, No Iterations 3
DILUPBiCGStab:  Solving for Uz, Initial residual = 1.7393e-06, Final residual = 6.83728e-11, No Iterations 3
GAMG:  Solving for p, Initial residual = 1.13124e-05, Final residual = 8.49669e-07, No Iterations 3
GAMG:  Solving for p, Initial residual = 8.97275e-07, Final residual = 8.22475e-08, No Iterations 16
time step continuity errors : sum local = 3.38144e-09, global = -2.24535e-11, cumulative = 1.39655e-06
DILUPBiCGStab:  Solving for omega, Initial residual = 4.66223e-09, Final residual = 3.82793e-11, No Iterations 1
DILUPBiCGStab:  Solving for k, Initial residual = 9.64677e-07, Final residual = 5.79373e-11, No Iterations 3
ExecutionTime = 0.29 s  ClockTime = 1 s

forceCoeffs forceCoeffs1 execute:
    Coefficients
        Cd       : 0.00721281	(pressure: 0.00252791	viscous: 0.0046849)
        Cs       : -1.00938e-21	(pressure: -8.4508e-21	viscous: 7.44142e-21)
        Cl       : 1.10367	(pressure: 1.10363	viscous: 3.92586e-05)
        CmRoll       : -0.551833	(pressure: -0.551813	viscous: -1.96293e-05)
        CmPitch       : -0.265096	(pressure: -0.2651	viscous: 4.29738e-06)
        CmYaw       : 0.00360641	(pressure: 0.00126396	viscous: 0.00234245)
        Cd(f)    : -0.548226
        Cd(r)    : 0.555439
        Cs(f)    : 0.00360641
        Cs(r)    : -0.00360641
        Cl(f)    : 0.286737
        Cl(r)    : 0.816929
Time = 22

DILUPBiCGStab:  Solving for Ux, Initial residual = 3.41301e-07, Final residual = 8.79384e-11, No Iterations 3
DILUPBiCGStab:  Solving for Uz, Initial residual = 1.72568e-06, Final residual = 9.19626e-11, No Iterations 3
GAMG:  Solving for p, Initial residual = 1.06657e-05, Final residual = 7.60248e-07, No Iterations 3
GAMG:  Solving for p, Initial residual = 8.04391e-07, Final residual = 7.75193e-08, No Iterations 16
time step continuity errors : sum local = 3.18723e-09, global = -1.28194e-11, cumulative = 1.39653e-06
DILUPBiCGStab:  Solving for omega, Initial residual = 4.45845e-09, Final residual = 3.67743e-11, No Iterations 1
DILUPBiCGStab:  Solving for k, Initial residual = 9.30509e-07, Final residual = 5.92353e-11, No Iterations 3
ExecutionTime = 0.3 s  ClockTime = 1 s

forceCoeffs forceCoeffs1 execute:
    Coefficients
        Cd       : 0.00714269	(pressure: 0.0025065	viscous: 0.00463619)
        Cs       : -1.00926e-21	(pressure: -8.45123e-21	viscous: 7.44197e-21)
        Cl       : 1.10366	(pressure: 1.10362	viscous: 4.32873e-05)
        CmRoll       : -0.551832	(pressure: -0.55181	viscous: -2.16436e-05)
        CmPitch       : -0.265064	(pressure: -0.265069	viscous: 4.39191e-06)
        CmYaw       : 0.00357135	(pressure: 0.00125325	viscous: 0.0023181)
        Cd(f)    : -0.54826
        Cd(r)    : 0.555403
        Cs(f)    : 0.00357135
        Cs(r)    : -0.00357135
        Cl(f)    : 0.286767
        Cl(r)    : 0.816896
Time = 23

DILUPBiCGStab:  Solving for Ux, Initial residual = 3.32528e-07, Final residual = 8.1791e-11, No Iterations 3
DILUPBiCGStab:  Solving for Uz, Initial residual = 1.71434e-06, Final residual = 9.44148e-12, No Iterations 4
GAMG:  Solving for p, Initial residual = 1.00836e-05, Final residual = 6.90512e-07, No Iterations 3
GAMG:  Solving for p, Initial residual = 7.31955e-07, Final residual = 6.62535e-08, No Iterations 17
time step continuity errors : sum local = 2.7242e-09, global = -2.77017e-11, cumulative = 1.39651e-06
DILUPBiCGStab:  Solving for omega, Initial residual = 4.2673e-09, Final residual = 3.53194e-11, No Iterations 1
DILUPBiCGStab:  Solving for k, Initial residual = 8.9855e-07, Final residual = 5.94092e-11, No Iterations 3
ExecutionTime = 0.3 s  ClockTime = 1 s

forceCoeffs forceCoeffs1 execute:
    Coefficients
        Cd       : 0.00707626	(pressure: 0.00248676	viscous: 0.0045895)
        Cs       : -1.00917e-21	(pressure: -8.45167e-21	viscous: 7.4425e-21)
        Cl       : 1.10366	(pressure: 1.10362	viscous: 4.73352e-05)
        CmRoll       : -0.551831	(pressure: -0.551808	viscous: -2.36676e-05)
        CmPitch       : -0.265034	(pressure: -0.265038	viscous: 4.45267e-06)
        CmYaw       : 0.00353813	(pressure: 0.00124338	viscous: 0.00229475)
        Cd(f)    : -0.548293
        Cd(r)    : 0.555369
        Cs(f)    : 0.00353813
        Cs(r)    : -0.00353813
        Cl(f)    : 0.286797
        Cl(r)    : 0.816865
Time = 24

DILUPBiCGStab:  Solving for Ux, Initial residual = 3.26838e-07, Final residual = 7.18635e-11, No Iterations 3
DILUPBiCGStab:  Solving for Uz, Initial residual = 1.70338e-06, Final residual = 9.69312e-12, No Iterations 4
GAMG:  Solving for p, Initial residual = 9.55281e-06, Final residual = 6.37731e-07, No Iterations 3
GAMG:  Solving for p, Initial residual = 6.77406e-07, Final residual = 6.58532e-08, No Iterations 17
time step continuity errors : sum local = 2.7079e-09, global = -1.56248e-11, cumulative = 1.39649e-06
DILUPBiCGStab:  Solving for omega, Initial residual = 4.08289e-09, Final residual = 3.38873e-11, No Iterations 1
DILUPBiCGStab:  Solving for k, Initial residual = 8.67877e-07, Final residual = 5.86109e-11, No Iterations 3
ExecutionTime = 0.31 s  ClockTime = 1 s

forceCoeffs forceCoeffs1 execute:
    Coefficients
        Cd       : 0.00701313	(pressure: 0.00246839	viscous: 0.00454474)
        Cs       : -1.0091e-21	(pressure: -8.45212e-21	viscous: 7.44301e-21)
        Cl       : 1.10366	(pressure: 1.10361	viscous: 5.13945e-05)
        CmRoll       : -0.551832	(pressure: -0.551806	viscous: -2.56972e-05)
        CmPitch       : -0.265004	(pressure: -0.265009	viscous: 4.47841e-06)
        CmYaw       : 0.00350657	(pressure: 0.0012342	viscous: 0.00227237)
        Cd(f)    : -0.548325
        Cd(r)    : 0.555338
        Cs(f)    : 0.00350657
        Cs(r)    : -0.00350657
        Cl(f)    : 0.286828
        Cl(r)    : 0.816836
Time = 25

DILUPBiCGStab:  Solving for Ux, Initial residual = 3.22302e-07, Final residual = 6.305e-11, No Iterations 3
DILUPBiCGStab:  Solving for Uz, Initial residual = 1.69197e-06, Final residual = 9.82841e-12, No Iterations 4
GAMG:  Solving for p, Initial residual = 9.05925e-06, Final residual = 6.00577e-07, No Iterations 3
GAMG:  Solving for p, Initial residual = 6.39169e-07, Final residual = 6.07731e-08, No Iterations 18
time step continuity errors : sum local = 2.49914e-09, global = 1.43091e-11, cumulative = 1.39651e-06
DILUPBiCGStab:  Solving for omega, Initial residual = 3.90953e-09, Final residual = 3.2486e-11, No Iterations 1
DILUPBiCGStab:  Solving for k, Initial residual = 8.38611e-07, Final residual = 5.75903e-11, No Iterations 3
ExecutionTime = 0.32 s  ClockTime = 1 s

forceCoeffs forceCoeffs1 execute:
    Coefficients
        Cd       : 0.0069527	(pressure: 0.00245088	viscous: 0.00450182)
        Cs       : -1.00906e-21	(pressure: -8.45259e-21	viscous: 7.44353e-21)
        Cl       : 1.10367	(pressure: 1.10361	viscous: 5.54558e-05)
        CmRoll       : -0.551833	(pressure: -0.551805	viscous: -2.77279e-05)
        CmPitch       : -0.264975	(pressure: -0.264979	viscous: 4.46866e-06)
        CmYaw       : 0.00347635	(pressure: 0.00122544	viscous: 0.00225091)
        Cd(f)    : -0.548357
        Cd(r)    : 0.555309
        Cs(f)    : 0.00347635
        Cs(r)    : -0.00347635
        Cl(f)    : 0.286858
        Cl(r)    : 0.816808
Time = 26

DILUPBiCGStab:  Solving for Ux, Initial residual = 3.18066e-07, Final residual = 5.62379e-11, No Iterations 3
DILUPBiCGStab:  Solving for Uz, Initial residual = 1.67964e-06, Final residual = 9.81052e-12, No Iterations 4
GAMG:  Solving for p, Initial residual = 8.58712e-06, Final residual = 5.7924e-07, No Iterations 3
GAMG:  Solving for p, Initial residual = 6.1637e-07, Final residual = 5.96969e-08, No Iterations 18
time step continuity errors : sum local = 2.455e-09, global = 1.38502e-11, cumulative = 1.39652e-06
DILUPBiCGStab:  Solving for omega, Initial residual = 3.86083e-09, Final residual = 3.06683e-11, No Iterations 1
DILUPBiCGStab:  Solving for k, Initial residual = 8.10044e-07, Final residual = 5.61331e-11, No Iterations 3
ExecutionTime = 0.33 s  ClockTime = 1 s

forceCoeffs forceCoeffs1 execute:
    Coefficients
        Cd       : 0.00689437	(pressure: 0.0024337	viscous: 0.00446067)
        Cs       : -1.00904e-21	(pressure: -8.45309e-21	viscous: 7.44405e-21)
        Cl       : 1.10367	(pressure: 1.10361	viscous: 5.95096e-05)
        CmRoll       : -0.551834	(pressure: -0.551804	viscous: -2.97548e-05)
        CmPitch       : -0.264944	(pressure: -0.264948	viscous: 4.42369e-06)
        CmYaw       : 0.00344719	(pressure: 0.00121685	viscous: 0.00223034)
        Cd(f)    : -0.548387
        Cd(r)    : 0.555281
        Cs(f)    : 0.00344719
        Cs(r)    : -0.00344719
        Cl(f)    : 0.28689
        Cl(r)    : 0.816778
Time = 27

DILUPBiCGStab:  Solving for Ux, Initial residual = 3.13268e-07, Final residual = 5.20694e-11, No Iterations 3
DILUPBiCGStab:  Solving for Uz, Initial residual = 1.66689e-06, Final residual = 9.63304e-12, No Iterations 4
GAMG:  Solving for p, Initial residual = 8.1414e-06, Final residual = 5.55654e-07, No Iterations 3
GAMG:  Solving for p, Initial residual = 5.91327e-07, Final residual = 5.836e-08, No Iterations 18
time step continuity errors : sum local = 2.40013e-09, global = 9.71144e-12, cumulative = 1.39653e-06
DILUPBiCGStab:  Solving for omega, Initial residual = 4.58845e-09, Final residual = 2.88457e-11, No Iterations 1
DILUPBiCGStab:  Solving for k, Initial residual = 7.82651e-07, Final residual = 5.44809e-11, No Iterations 3
ExecutionTime = 0.34 s  ClockTime = 1 s

forceCoeffs forceCoeffs1 execute:
    Coefficients
        Cd       : 0.00683764	(pressure: 0.00241641	viscous: 0.00442123)
        Cs       : -1.00903e-21	(pressure: -8.45363e-21	viscous: 7.4446e-21)
        Cl       : 1.10367	(pressure: 1.1036	viscous: 6.3546e-05)
        CmRoll       : -0.551834	(pressure: -0.551802	viscous: -3.1773e-05)
        CmPitch       : -0.264911	(pressure: -0.264916	viscous: 4.34431e-06)
        CmYaw       : 0.00341882	(pressure: 0.00120821	viscous: 0.00221061)
        Cd(f)    : -0.548415
        Cd(r)    : 0.555253
        Cs(f)    : 0.00341882
        Cs(r)    : -0.00341882
        Cl(f)    : 0.286923
        Cl(r)    : 0.816746
Time = 28

DILUPBiCGStab:  Solving for Ux, Initial residual = 3.07992e-07, Final residual = 4.85855e-11, No Iterations 3
DILUPBiCGStab:  Solving for Uz, Initial residual = 1.65441e-06, Final residual = 9.41547e-12, No Iterations 4
GAMG:  Solving for p, Initial residual = 7.71884e-06, Final residual = 5.35058e-07, No Iterations 3
GAMG:  Solving for p, Initial residual = 5.70114e-07, Final residual = 5.6297e-08, No Iterations 18
time step continuity errors : sum local = 2.31538e-09, global = 3.99614e-12, cumulative = 1.39653e-06
DILUPBiCGStab:  Solving for omega, Initial residual = 3.57699e-09, Final residual = 2.79725e-11, No Iterations 1
DILUPBiCGStab:  Solving for k, Initial residual = 7.56906e-07, Final residual = 5.28086e-11, No Iterations 3
ExecutionTime = 0.35 s  ClockTime = 1 s

forceCoeffs forceCoeffs1 execute:
    Coefficients
        Cd       : 0.00678218	(pressure: 0.00239876	viscous: 0.00438341)
        Cs       : -1.00905e-21	(pressure: -8.45421e-21	viscous: 7.44516e-21)
        Cl       : 1.10367	(pressure: 1.1036	viscous: 6.75567e-05)
        CmRoll       : -0.551833	(pressure: -0.551799	viscous: -3.37784e-05)
        CmPitch       : -0.264876	(pressure: -0.264881	viscous: 4.23175e-06)
        CmYaw       : 0.00339109	(pressure: 0.00119938	viscous: 0.00219171)
        Cd(f)    : -0.548442
        Cd(r)    : 0.555224
        Cs(f)    : 0.00339109
        Cs(r)    : -0.00339109
        Cl(f)    : 0.286956
        Cl(r)    : 0.816709
Time = 29

DILUPBiCGStab:  Solving for Ux, Initial residual = 3.02709e-07, Final residual = 4.77151e-11, No Iterations 3
DILUPBiCGStab:  Solving for Uz, Initial residual = 1.642e-06, Final residual = 8.99032e-11, No Iterations 3
GAMG:  Solving for p, Initial residual = 7.35447e-06, Final residual = 5.10866e-07, No Iterations 3
GAMG:  Solving for p, Initial residual = 5.45355e-07, Final residual = 5.30422e-08, No Iterations 18
time step continuity errors : sum local = 2.18159e-09, global = -1.03953e-12, cumulative = 1.39653e-06
DILUPBiCGStab:  Solving for omega, Initial residual = 3.33491e-09, Final residual = 2.71182e-11, No Iterations 1
DILUPBiCGStab:  Solving for k, Initial residual = 7.32392e-07, Final residual = 5.07138e-11, No Iterations 3
ExecutionTime = 0.35 s  ClockTime = 1 s

forceCoeffs forceCoeffs1 execute:
    Coefficients
        Cd       : 0.00672785	(pressure: 0.00238067	viscous: 0.00434718)
        Cs       : -1.00908e-21	(pressure: -8.45483e-21	viscous: 7.44575e-21)
        Cl       : 1.10366	(pressure: 1.10359	viscous: 7.15318e-05)
        CmRoll       : -0.551829	(pressure: -0.551793	viscous: -3.57659e-05)
        CmPitch       : -0.264839	(pressure: -0.264843	viscous: 4.08745e-06)
        CmYaw       : 0.00336393	(pressure: 0.00119034	viscous: 0.00217359)
        Cd(f)    : -0.548465
        Cd(r)    : 0.555193
        Cs(f)    : 0.00336393
        Cs(r)    : -0.00336393
        Cl(f)    : 0.286991
        Cl(r)    : 0.816668
Time = 30

DILUPBiCGStab:  Solving for Ux, Initial residual = 2.97695e-07, Final residual = 4.94615e-11, No Iterations 3
DILUPBiCGStab:  Solving for Uz, Initial residual = 1.62987e-06, Final residual = 7.39171e-11, No Iterations 3
GAMG:  Solving for p, Initial residual = 7.03371e-06, Final residual = 4.9047e-07, No Iterations 3
GAMG:  Solving for p, Initial residual = 5.23983e-07, Final residual = 4.94968e-08, No Iterations 18
time step continuity errors : sum local = 2.03584e-09, global = -4.69306e-12, cumulative = 1.39653e-06
DILUPBiCGStab:  Solving for omega, Initial residual = 3.12989e-09, Final residual = 2.60806e-11, No Iterations 1
DILUPBiCGStab:  Solving for k, Initial residual = 7.08727e-07, Final residual = 4.8351e-11, No Iterations 3
ExecutionTime = 0.36 s  ClockTime = 1 s

forceCoeffs forceCoeffs1 execute:
    Coefficients
        Cd       : 0.00667469	(pressure: 0.00236222	viscous: 0.00431247)
        Cs       : -1.00913e-21	(pressure: -8.45549e-21	viscous: 7.44636e-21)
        Cl       : 1.10365	(pressure: 1.10357	viscous: 7.5464e-05)
        CmRoll       : -0.551824	(pressure: -0.551786	viscous: -3.7732e-05)
        CmPitch       : -0.264799	(pressure: -0.264802	viscous: 3.91309e-06)
        CmYaw       : 0.00333735	(pressure: 0.00118111	viscous: 0.00215623)
        Cd(f)    : -0.548486
        Cd(r)    : 0.555161
        Cs(f)    : 0.00333735
        Cs(r)    : -0.00333735
        Cl(f)    : 0.287025
        Cl(r)    : 0.816622
Time = 31

DILUPBiCGStab:  Solving for Ux, Initial residual = 2.92982e-07, Final residual = 5.12034e-11, No Iterations 3
DILUPBiCGStab:  Solving for Uz, Initial residual = 1.61685e-06, Final residual = 6.29724e-11, No Iterations 3
GAMG:  Solving for p, Initial residual = 6.71595e-06, Final residual = 4.73317e-07, No Iterations 3
GAMG:  Solving for p, Initial residual = 5.05723e-07, Final residual = 4.51184e-08, No Iterations 18
time step continuity errors : sum local = 1.8558e-09, global = -6.51405e-12, cumulative = 1.39652e-06
DILUPBiCGStab:  Solving for omega, Initial residual = 2.9788e-09, Final residual = 2.49329e-11, No Iterations 1
DILUPBiCGStab:  Solving for k, Initial residual = 6.86e-07, Final residual = 4.60323e-11, No Iterations 3
ExecutionTime = 0.37 s  ClockTime = 1 s

forceCoeffs forceCoeffs1 execute:
    Coefficients
        Cd       : 0.00662284	(pressure: 0.00234361	viscous: 0.00427923)
        Cs       : -1.00922e-21	(pressure: -8.4562e-21	viscous: 7.44698e-21)
        Cl       : 1.10363	(pressure: 1.10355	viscous: 7.93461e-05)
        CmRoll       : -0.551817	(pressure: -0.551777	viscous: -3.9673e-05)
        CmPitch       : -0.264756	(pressure: -0.26476	viscous: 3.71059e-06)
        CmYaw       : 0.00331142	(pressure: 0.0011718	viscous: 0.00213961)
        Cd(f)    : -0.548505
        Cd(r)    : 0.555128
        Cs(f)    : 0.00331142
        Cs(r)    : -0.00331142
        Cl(f)    : 0.28706
        Cl(r)    : 0.816573
Time = 32

DILUPBiCGStab:  Solving for Ux, Initial residual = 2.89155e-07, Final residual = 5.18527e-11, No Iterations 3
DILUPBiCGStab:  Solving for Uz, Initial residual = 1.60325e-06, Final residual = 3.06963e-11, No Iterations 3
GAMG:  Solving for p, Initial residual = 6.4086e-06, Final residual = 4.59691e-07, No Iterations 3
GAMG:  Solving for p, Initial residual = 4.90715e-07, Final residual = 4.73471e-08, No Iterations 16
time step continuity errors : sum local = 1.94753e-09, global = -3.32381e-12, cumulative = 1.39652e-06
DILUPBiCGStab:  Solving for omega, Initial residual = 2.83454e-09, Final residual = 2.38573e-11, No Iterations 1
DILUPBiCGStab:  Solving for k, Initial residual = 6.6431e-07, Final residual = 4.39875e-11, No Iterations 3
ExecutionTime = 0.38 s  ClockTime = 1 s

forceCoeffs forceCoeffs1 execute:
    Coefficients
        Cd       : 0.00657248	(pressure: 0.00232507	viscous: 0.00424741)
        Cs       : -1.00933e-21	(pressure: -8.45695e-21	viscous: 7.44762e-21)
        Cl       : 1.10362	(pressure: 1.10353	viscous: 8.31716e-05)
        CmRoll       : -0.551808	(pressure: -0.551766	viscous: -4.15858e-05)
        CmPitch       : -0.264713	(pressure: -0.264716	viscous: 3.4821e-06)
        CmYaw       : 0.00328624	(pressure: 0.00116254	viscous: 0.0021237)
        Cd(f)    : -0.548522
        Cd(r)    : 0.555094
        Cs(f)    : 0.00328624
        Cs(r)    : -0.00328624
        Cl(f)    : 0.287095
        Cl(r)    : 0.816521
Time = 33

DILUPBiCGStab:  Solving for Ux, Initial residual = 2.86727e-07, Final residual = 5.11552e-11, No Iterations 3
DILUPBiCGStab:  Solving for Uz, Initial residual = 1.58909e-06, Final residual = 1.69304e-11, No Iterations 3
GAMG:  Solving for p, Initial residual = 6.12617e-06, Final residual = 4.46399e-07, No Iterations 3
GAMG:  Solving for p, Initial residual = 4.76064e-07, Final residual = 4.53304e-08, No Iterations 16
time step continuity errors : sum local = 1.86462e-09, global = -2.9423e-11, cumulative = 1.39649e-06
DILUPBiCGStab:  Solving for omega, Initial residual = 2.70188e-09, Final residual = 2.28529e-11, No Iterations 1
DILUPBiCGStab:  Solving for k, Initial residual = 6.43259e-07, Final residual = 4.23356e-11, No Iterations 3
ExecutionTime = 0.4 s  ClockTime = 1 s

forceCoeffs forceCoeffs1 execute:
    Coefficients
        Cd       : 0.00652373	(pressure: 0.00230676	viscous: 0.00421696)
        Cs       : -1.00948e-21	(pressure: -8.45774e-21	viscous: 7.44826e-21)
        Cl       : 1.1036	(pressure: 1.10351	viscous: 8.6934e-05)
        CmRoll       : -0.551798	(pressure: -0.551755	viscous: -4.3467e-05)
        CmPitch       : -0.264668	(pressure: -0.264672	viscous: 3.22992e-06)
        CmYaw       : 0.00326186	(pressure: 0.00115338	viscous: 0.00210848)
        Cd(f)    : -0.548536
        Cd(r)    : 0.55506
        Cs(f)    : 0.00326186
        Cs(r)    : -0.00326186
        Cl(f)    : 0.28713
        Cl(r)    : 0.816466
Time = 34

DILUPBiCGStab:  Solving for Ux, Initial residual = 2.85367e-07, Final residual = 4.95022e-11, No Iterations 3
DILUPBiCGStab:  Solving for Uz, Initial residual = 1.57485e-06, Final residual = 9.7937e-12, No Iterations 3
GAMG:  Solving for p, Initial residual = 5.8646e-06, Final residual = 4.35382e-07, No Iterations 3
GAMG:  Solving for p, Initial residual = 4.63932e-07, Final residual = 4.57491e-08, No Iterations 10
time step continuity errors : sum local = 1.88189e-09, global = 3.36413e-12, cumulative = 1.39649e-06
DILUPBiCGStab:  Solving for omega, Initial residual = 2.56313e-09, Final residual = 2.19227e-11, No Iterations 1
DILUPBiCGStab:  Solving for k, Initial residual = 6.2313e-07, Final residual = 4.12244e-11, No Iterations 3
ExecutionTime = 0.41 s  ClockTime = 1 s

forceCoeffs forceCoeffs1 execute:
    Coefficients
        Cd       : 0.00647688	(pressure: 0.00228903	viscous: 0.00418785)
        Cs       : -1.00967e-21	(pressure: -8.45856e-21	viscous: 7.4489e-21)
        Cl       : 1.10358	(pressure: 1.10348	viscous: 9.06275e-05)
        CmRoll       : -0.551788	(pressure: -0.551742	viscous: -4.53138e-05)
        CmPitch       : -0.264623	(pressure: -0.264626	viscous: 2.95651e-06)
        CmYaw       : 0.00323844	(pressure: 0.00114452	viscous: 0.00209393)
        Cd(f)    : -0.548549
        Cd(r)    : 0.555026
        Cs(f)    : 0.00323844
        Cs(r)    : -0.00323844
        Cl(f)    : 0.287164
        Cl(r)    : 0.816411
Time = 35

DILUPBiCGStab:  Solving for Ux, Initial residual = 2.84486e-07, Final residual = 4.76945e-11, No Iterations 3
DILUPBiCGStab:  Solving for Uz, Initial residual = 1.56134e-06, Final residual = 9.65432e-11, No Iterations 3
GAMG:  Solving for p, Initial residual = 5.64334e-06, Final residual = 4.35976e-07, No Iterations 3
GAMG:  Solving for p, Initial residual = 4.63846e-07, Final residual = 3.5901e-08, No Iterations 8
time step continuity errors : sum local = 1.47682e-09, global = 1.49199e-11, cumulative = 1.39651e-06
DILUPBiCGStab:  Solving for omega, Initial residual = 2.44391e-09, Final residual = 2.10371e-11, No Iterations 1
DILUPBiCGStab:  Solving for k, Initial residual = 6.03902e-07, Final residual = 4.08453e-11, No Iterations 3
ExecutionTime = 0.41 s  ClockTime = 1 s

forceCoeffs forceCoeffs1 execute:
    Coefficients
        Cd       : 0.0064318	(pressure: 0.00227178	viscous: 0.00416003)
        Cs       : -1.00989e-21	(pressure: -8.45941e-21	viscous: 7.44952e-21)
        Cl       : 1.10355	(pressure: 1.10346	viscous: 9.42458e-05)
        CmRoll       : -0.551776	(pressure: -0.551729	viscous: -4.71229e-05)
        CmPitch       : -0.264578	(pressure: -0.264581	viscous: 2.6645e-06)
        CmYaw       : 0.0032159	(pressure: 0.00113589	viscous: 0.00208001)
        Cd(f)    : -0.548561
        Cd(r)    : 0.554992
        Cs(f)    : 0.0032159
        Cs(r)    : -0.0032159
        Cl(f)    : 0.287198
        Cl(r)    : 0.816354
Time = 36

DILUPBiCGStab:  Solving for Ux, Initial residual = 2.8368e-07, Final residual = 4.54321e-11, No Iterations 3
DILUPBiCGStab:  Solving for Uz, Initial residual = 1.54855e-06, Final residual = 7.17074e-11, No Iterations 3
GAMG:  Solving for p, Initial residual = 5.43967e-06, Final residual = 4.40029e-07, No Iterations 3
GAMG:  Solving for p, Initial residual = 4.67488e-07, Final residual = 4.25782e-08, No Iterations 8
time step continuity errors : sum local = 1.75153e-09, global = 6.60349e-12, cumulative = 1.39651e-06
DILUPBiCGStab:  Solving for omega, Initial residual = 2.32814e-09, Final residual = 2.01967e-11, No Iterations 1
DILUPBiCGStab:  Solving for k, Initial residual = 5.85537e-07, Final residual = 4.13021e-11, No Iterations 3
ExecutionTime = 0.42 s  ClockTime = 1 s

forceCoeffs forceCoeffs1 execute:
    Coefficients
        Cd       : 0.00638825	(pressure: 0.0022548	viscous: 0.00413345)
        Cs       : -1.01014e-21	(pressure: -8.46029e-21	viscous: 7.45015e-21)
        Cl       : 1.10353	(pressure: 1.10343	viscous: 9.77838e-05)
        CmRoll       : -0.551764	(pressure: -0.551716	viscous: -4.88919e-05)
        CmPitch       : -0.264532	(pressure: -0.264534	viscous: 2.35645e-06)
        CmYaw       : 0.00319412	(pressure: 0.0011274	viscous: 0.00206673)
        Cd(f)    : -0.54857
        Cd(r)    : 0.554959
        Cs(f)    : 0.00319412
        Cs(r)    : -0.00319412
        Cl(f)    : 0.287233
        Cl(r)    : 0.816296
Time = 37

DILUPBiCGStab:  Solving for Ux, Initial residual = 2.82885e-07, Final residual = 4.29569e-11, No Iterations 3
DILUPBiCGStab:  Solving for Uz, Initial residual = 1.53595e-06, Final residual = 8.43331e-11, No Iterations 3
GAMG:  Solving for p, Initial residual = 5.24558e-06, Final residual = 4.46623e-07, No Iterations 3
GAMG:  Solving for p, Initial residual = 4.7368e-07, Final residual = 4.03991e-08, No Iterations 8
time step continuity errors : sum local = 1.66192e-09, global = 4.97659e-11, cumulative = 1.39656e-06
DILUPBiCGStab:  Solving for omega, Initial residual = 2.21113e-09, Final residual = 1.93959e-11, No Iterations 1
DILUPBiCGStab:  Solving for k, Initial residual = 5.68165e-07, Final residual = 4.25482e-11, No Iterations 3
ExecutionTime = 0.43 s  ClockTime = 1 s

forceCoeffs forceCoeffs1 execute:
    Coefficients
        Cd       : 0.0063462	(pressure: 0.00223812	viscous: 0.00410808)
        Cs       : -1.01042e-21	(pressure: -8.46118e-21	viscous: 7.45076e-21)
        Cl       : 1.1035	(pressure: 1.1034	viscous: 0.000101237)
        CmRoll       : -0.551752	(pressure: -0.551701	viscous: -5.06187e-05)
        CmPitch       : -0.264485	(pressure: -0.264487	viscous: 2.03476e-06)
        CmYaw       : 0.0031731	(pressure: 0.00111906	viscous: 0.00205404)
        Cd(f)    : -0.548579
        Cd(r)    : 0.554925
        Cs(f)    : 0.0031731
        Cs(r)    : -0.0031731
        Cl(f)    : 0.287266
        Cl(r)    : 0.816237
Time = 38

DILUPBiCGStab:  Solving for Ux, Initial residual = 2.81876e-07, Final residual = 4.04462e-11, No Iterations 3
DILUPBiCGStab:  Solving for Uz, Initial residual = 1.52276e-06, Final residual = 7.98067e-11, No Iterations 3
GAMG:  Solving for p, Initial residual = 5.07691e-06, Final residual = 4.55235e-07, No Iterations 3
GAMG:  Solving for p, Initial residual = 4.81791e-07, Final residual = 4.58666e-08, No Iterations 8
time step continuity errors : sum local = 1.88688e-09, global = 7.04327e-11, cumulative = 1.39663e-06
DILUPBiCGStab:  Solving for omega, Initial residual = 2.10126e-09, Final residual = 1.86507e-11, No Iterations 1
DILUPBiCGStab:  Solving for k, Initial residual = 5.51827e-07, Final residual = 4.44721e-11, No Iterations 3
ExecutionTime = 0.44 s  ClockTime = 1 s

forceCoeffs forceCoeffs1 execute:
    Coefficients
        Cd       : 0.00630566	(pressure: 0.00222178	viscous: 0.00408388)
        Cs       : -1.01074e-21	(pressure: -8.4621e-21	viscous: 7.45136e-21)
        Cl       : 1.10348	(pressure: 1.10337	viscous: 0.000104602)
        CmRoll       : -0.551738	(pressure: -0.551686	viscous: -5.23011e-05)
        CmPitch       : -0.264438	(pressure: -0.26444	viscous: 1.7019e-06)
        CmYaw       : 0.00315283	(pressure: 0.00111089	viscous: 0.00204194)
        Cd(f)    : -0.548585
        Cd(r)    : 0.554891
        Cs(f)    : 0.00315283
        Cs(r)    : -0.00315283
        Cl(f)    : 0.2873
        Cl(r)    : 0.816177
Time = 39

DILUPBiCGStab:  Solving for Ux, Initial residual = 2.80806e-07, Final residual = 3.80946e-11, No Iterations 3
DILUPBiCGStab:  Solving for Uz, Initial residual = 1.50826e-06, Final residual = 7.91042e-11, No Iterations 3
GAMG:  Solving for p, Initial residual = 4.91309e-06, Final residual = 4.63958e-07, No Iterations 3
GAMG:  Solving for p, Initial residual = 4.9032e-07, Final residual = 4.6016e-08, No Iterations 8
time step continuity errors : sum local = 1.89306e-09, global = 1.10445e-10, cumulative = 1.39674e-06
DILUPBiCGStab:  Solving for omega, Initial residual = 1.99554e-09, Final residual = 1.79751e-11, No Iterations 1
DILUPBiCGStab:  Solving for k, Initial residual = 5.36093e-07, Final residual = 4.66802e-11, No Iterations 3
ExecutionTime = 0.44 s  ClockTime = 1 s

forceCoeffs forceCoeffs1 execute:
    Coefficients
        Cd       : 0.0062666	(pressure: 0.0022058	viscous: 0.0040608)
        Cs       : -1.01108e-21	(pressure: -8.46303e-21	viscous: 7.45195e-21)
        Cl       : 1.10345	(pressure: 1.10334	viscous: 0.000107875)
        CmRoll       : -0.551724	(pressure: -0.55167	viscous: -5.39374e-05)
        CmPitch       : -0.264391	(pressure: -0.264392	viscous: 1.36027e-06)
        CmYaw       : 0.0031333	(pressure: 0.0011029	viscous: 0.0020304)
        Cd(f)    : -0.548591
        Cd(r)    : 0.554857
        Cs(f)    : 0.0031333
        Cs(r)    : -0.0031333
        Cl(f)    : 0.287334
        Cl(r)    : 0.816115
Time = 40

DILUPBiCGStab:  Solving for Ux, Initial residual = 2.79488e-07, Final residual = 3.60386e-11, No Iterations 3
DILUPBiCGStab:  Solving for Uz, Initial residual = 1.49323e-06, Final residual = 8.26772e-11, No Iterations 3
GAMG:  Solving for p, Initial residual = 4.76272e-06, Final residual = 4.7128e-07, No Iterations 3
GAMG:  Solving for p, Initial residual = 4.97471e-07, Final residual = 4.95278e-08, No Iterations 8
time step continuity errors : sum local = 2.03756e-09, global = 1.54236e-10, cumulative = 1.3969e-06
DILUPBiCGStab:  Solving for omega, Initial residual = 1.89552e-09, Final residual = 1.73347e-11, No Iterations 1
DILUPBiCGStab:  Solving for k, Initial residual = 5.20928e-07, Final residual = 4.87205e-11, No Iterations 3
ExecutionTime = 0.45 s  ClockTime = 1 s

forceCoeffs forceCoeffs1 execute:
    Coefficients
        Cd       : 0.00622901	(pressure: 0.00219019	viscous: 0.00403882)
        Cs       : -1.01145e-21	(pressure: -8.46396e-21	viscous: 7.45251e-21)
        Cl       : 1.10342	(pressure: 1.10331	viscous: 0.000111052)
        CmRoll       : -0.551709	(pressure: -0.551654	viscous: -5.55258e-05)
        CmPitch       : -0.264343	(pressure: -0.264344	viscous: 1.01224e-06)
        CmYaw       : 0.0031145	(pressure: 0.0010951	viscous: 0.00201941)
        Cd(f)    : -0.548595
        Cd(r)    : 0.554824
        Cs(f)    : 0.0031145
        Cs(r)    : -0.0031145
        Cl(f)    : 0.287367
        Cl(r)    : 0.816052
Time = 41

DILUPBiCGStab:  Solving for Ux, Initial residual = 2.78196e-07, Final residual = 3.45157e-11, No Iterations 3
DILUPBiCGStab:  Solving for Uz, Initial residual = 1.4779e-06, Final residual = 8.83633e-11, No Iterations 3
GAMG:  Solving for p, Initial residual = 4.61789e-06, Final residual = 3.39865e-07, No Iterations 4
GAMG:  Solving for p, Initial residual = 3.77117e-07, Final residual = 3.36212e-08, No Iterations 11
time step continuity errors : sum local = 1.38321e-09, global = 1.12415e-10, cumulative = 1.39701e-06
DILUPBiCGStab:  Solving for omega, Initial residual = 1.82774e-09, Final residual = 1.6743e-11, No Iterations 1
DILUPBiCGStab:  Solving for k, Initial residual = 5.06376e-07, Final residual = 5.02718e-11, No Iterations 3
ExecutionTime = 0.46 s  ClockTime = 1 s

forceCoeffs forceCoeffs1 execute:
    Coefficients
        Cd       : 0.00619262	(pressure: 0.00217475	viscous: 0.00401788)
        Cs       : -1.01183e-21	(pressure: -8.4649e-21	viscous: 7.45307e-21)
        Cl       : 1.10339	(pressure: 1.10327	viscous: 0.00011413)
        CmRoll       : -0.551694	(pressure: -0.551637	viscous: -5.7065e-05)
        CmPitch       : -0.264294	(pressure: -0.264295	viscous: 6.60002e-07)
        CmYaw       : 0.00309631	(pressure: 0.00108737	viscous: 0.00200894)
        Cd(f)    : -0.548597
        Cd(r)    : 0.55479
        Cs(f)    : 0.00309631
        Cs(r)    : -0.00309631
        Cl(f)    : 0.287399
        Cl(r)    : 0.815988
Time = 42

DILUPBiCGStab:  Solving for Ux, Initial residual = 2.76875e-07, Final residual = 3.36407e-11, No Iterations 3
DILUPBiCGStab:  Solving for Uz, Initial residual = 1.46236e-06, Final residual = 9.37527e-11, No Iterations 3
GAMG:  Solving for p, Initial residual = 4.48628e-06, Final residual = 3.38082e-07, No Iterations 4
GAMG:  Solving for p, Initial residual = 3.75786e-07, Final residual = 3.386e-08, No Iterations 15
time step continuity errors : sum local = 1.39306e-09, global = 7.44728e-12, cumulative = 1.39702e-06
DILUPBiCGStab:  Solving for omega, Initial residual = 1.74305e-09, Final residual = 1.6119e-11, No Iterations 1
DILUPBiCGStab:  Solving for k, Initial residual = 4.92259e-07, Final residual = 5.16415e-11, No Iterations 3
ExecutionTime = 0.47 s  ClockTime = 1 s

forceCoeffs forceCoeffs1 execute:
    Coefficients
        Cd       : 0.00615772	(pressure: 0.00215977	viscous: 0.00399795)
        Cs       : -1.01224e-21	(pressure: -8.46584e-21	viscous: 7.4536e-21)
        Cl       : 1.10335	(pressure: 1.10324	viscous: 0.000117109)
        CmRoll       : -0.551677	(pressure: -0.551619	viscous: -5.85545e-05)
        CmPitch       : -0.264246	(pressure: -0.264246	viscous: 3.05386e-07)
        CmYaw       : 0.00307886	(pressure: 0.00107988	viscous: 0.00199898)
        Cd(f)    : -0.548598
        Cd(r)    : 0.554756
        Cs(f)    : 0.00307886
        Cs(r)    : -0.00307886
        Cl(f)    : 0.287431
        Cl(r)    : 0.815923
Time = 43

DILUPBiCGStab:  Solving for Ux, Initial residual = 2.75568e-07, Final residual = 3.33577e-11, No Iterations 3
DILUPBiCGStab:  Solving for Uz, Initial residual = 1.44716e-06, Final residual = 9.88035e-11, No Iterations 3
GAMG:  Solving for p, Initial residual = 4.35779e-06, Final residual = 3.32015e-07, No Iterations 4
GAMG:  Solving for p, Initial residual = 3.70213e-07, Final residual = 3.07381e-08, No Iterations 17
time step continuity errors : sum local = 1.26464e-09, global = 1.18515e-11, cumulative = 1.39703e-06
DILUPBiCGStab:  Solving for omega, Initial residual = 1.6694e-09, Final residual = 1.54909e-11, No Iterations 1
DILUPBiCGStab:  Solving for k, Initial residual = 4.78553e-07, Final residual = 5.25173e-11, No Iterations 3
ExecutionTime = 0.48 s  ClockTime = 1 s

forceCoeffs forceCoeffs1 execute:
    Coefficients
        Cd       : 0.00612437	(pressure: 0.00214537	viscous: 0.00397901)
        Cs       : -1.01267e-21	(pressure: -8.46678e-21	viscous: 7.45411e-21)
        Cl       : 1.10332	(pressure: 1.1032	viscous: 0.000119986)
        CmRoll       : -0.55166	(pressure: -0.5516	viscous: -5.99931e-05)
        CmPitch       : -0.264197	(pressure: -0.264197	viscous: -4.9311e-08)
        CmYaw       : 0.00306219	(pressure: 0.00107268	viscous: 0.0019895)
        Cd(f)    : -0.548598
        Cd(r)    : 0.554722
        Cs(f)    : 0.00306219
        Cs(r)    : -0.00306219
        Cl(f)    : 0.287463
        Cl(r)    : 0.815858
Time = 44

DILUPBiCGStab:  Solving for Ux, Initial residual = 2.73957e-07, Final residual = 3.35934e-11, No Iterations 3
DILUPBiCGStab:  Solving for Uz, Initial residual = 1.43282e-06, Final residual = 1.6806e-11, No Iterations 3
GAMG:  Solving for p, Initial residual = 4.22605e-06, Final residual = 3.26357e-07, No Iterations 4
GAMG:  Solving for p, Initial residual = 3.64888e-07, Final residual = 3.07211e-08, No Iterations 15
time step continuity errors : sum local = 1.26396e-09, global = 3.3864e-11, cumulative = 1.39706e-06
DILUPBiCGStab:  Solving for omega, Initial residual = 1.92453e-09, Final residual = 1.46112e-11, No Iterations 1
DILUPBiCGStab:  Solving for k, Initial residual = 4.65198e-07, Final residual = 5.28146e-11, No Iterations 3
ExecutionTime = 0.49 s  ClockTime = 1 s

forceCoeffs forceCoeffs1 execute:
    Coefficients
        Cd       : 0.00609251	(pressure: 0.00213152	viscous: 0.003961)
        Cs       : -1.01311e-21	(pressure: -8.46771e-21	viscous: 7.4546e-21)
        Cl       : 1.10329	(pressure: 1.10316	viscous: 0.00012276)
        CmRoll       : -0.551643	(pressure: -0.551582	viscous: -6.13801e-05)
        CmPitch       : -0.264149	(pressure: -0.264149	viscous: -4.02071e-07)
        CmYaw       : 0.00304626	(pressure: 0.00106576	viscous: 0.0019805)
        Cd(f)    : -0.548597
        Cd(r)    : 0.554689
        Cs(f)    : 0.00304626
        Cs(r)    : -0.00304626
        Cl(f)    : 0.287494
        Cl(r)    : 0.815792
Time = 45

DILUPBiCGStab:  Solving for Ux, Initial residual = 2.72111e-07, Final residual = 3.44245e-11, No Iterations 3
DILUPBiCGStab:  Solving for Uz, Initial residual = 1.41879e-06, Final residual = 1.79441e-11, No Iterations 3
GAMG:  Solving for p, Initial residual = 4.09527e-06, Final residual = 3.21442e-07, No Iterations 4
GAMG:  Solving for p, Initial residual = 3.60363e-07, Final residual = 3.47261e-08, No Iterations 15
time step continuity errors : sum local = 1.42878e-09, global = 7.17118e-12, cumulative = 1.39707e-06
DILUPBiCGStab:  Solving for omega, Initial residual = 1.94945e-09, Final residual = 1.41306e-11, No Iterations 1
DILUPBiCGStab:  Solving for k, Initial residual = 4.52213e-07, Final residual = 5.25725e-11, No Iterations 3
ExecutionTime = 0.49 s  ClockTime = 1 s

forceCoeffs forceCoeffs1 execute:
    Coefficients
        Cd       : 0.00606204	(pressure: 0.00211815	viscous: 0.00394389)
        Cs       : -1.01357e-21	(pressure: -8.46863e-21	viscous: 7.45506e-21)
        Cl       : 1.10325	(pressure: 1.10312	viscous: 0.000125431)
        CmRoll       : -0.551625	(pressure: -0.551562	viscous: -6.27153e-05)
        CmPitch       : -0.264101	(pressure: -0.2641	viscous: -7.51144e-07)
        CmYaw       : 0.00303102	(pressure: 0.00105908	viscous: 0.00197195)
        Cd(f)    : -0.548594
        Cd(r)    : 0.554656
        Cs(f)    : 0.00303102
        Cs(r)    : -0.00303102
        Cl(f)    : 0.287524
        Cl(r)    : 0.815726
Time = 46

DILUPBiCGStab:  Solving for Ux, Initial residual = 2.69838e-07, Final residual = 3.57761e-11, No Iterations 3
DILUPBiCGStab:  Solving for Uz, Initial residual = 1.40428e-06, Final residual = 1.92291e-11, No Iterations 3
GAMG:  Solving for p, Initial residual = 3.98674e-06, Final residual = 3.15486e-07, No Iterations 4
GAMG:  Solving for p, Initial residual = 3.54705e-07, Final residual = 3.2833e-08, No Iterations 15
time step continuity errors : sum local = 1.35091e-09, global = 2.68916e-11, cumulative = 1.3971e-06
DILUPBiCGStab:  Solving for omega, Initial residual = 1.43275e-09, Final residual = 1.41996e-11, No Iterations 1
DILUPBiCGStab:  Solving for k, Initial residual = 4.39476e-07, Final residual = 5.18204e-11, No Iterations 3
ExecutionTime = 0.5 s  ClockTime = 1 s

forceCoeffs forceCoeffs1 execute:
    Coefficients
        Cd       : 0.00603285	(pressure: 0.00210519	viscous: 0.00392766)
        Cs       : -1.01404e-21	(pressure: -8.46955e-21	viscous: 7.45551e-21)
        Cl       : 1.10321	(pressure: 1.10309	viscous: 0.000127997)
        CmRoll       : -0.551607	(pressure: -0.551543	viscous: -6.39987e-05)
        CmPitch       : -0.264053	(pressure: -0.264052	viscous: -1.09501e-06)
        CmYaw       : 0.00301642	(pressure: 0.0010526	viscous: 0.00196383)
        Cd(f)    : -0.54859
        Cd(r)    : 0.554623
        Cs(f)    : 0.00301642
        Cs(r)    : -0.00301642
        Cl(f)    : 0.287553
        Cl(r)    : 0.81566
Time = 47

DILUPBiCGStab:  Solving for Ux, Initial residual = 2.67139e-07, Final residual = 3.7397e-11, No Iterations 3
DILUPBiCGStab:  Solving for Uz, Initial residual = 1.38905e-06, Final residual = 2.0754e-11, No Iterations 3
GAMG:  Solving for p, Initial residual = 3.88018e-06, Final residual = 3.08124e-07, No Iterations 4
GAMG:  Solving for p, Initial residual = 3.47522e-07, Final residual = 3.14912e-08, No Iterations 15
time step continuity errors : sum local = 1.29574e-09, global = 1.35284e-11, cumulative = 1.39711e-06
DILUPBiCGStab:  Solving for omega, Initial residual = 1.37986e-09, Final residual = 1.36205e-11, No Iterations 1
DILUPBiCGStab:  Solving for k, Initial residual = 4.26957e-07, Final residual = 5.07522e-11, No Iterations 3
ExecutionTime = 0.51 s  ClockTime = 1 s

forceCoeffs forceCoeffs1 execute:
    Coefficients
        Cd       : 0.00600486	(pressure: 0.0020926	viscous: 0.00391225)
        Cs       : -1.01452e-21	(pressure: -8.47046e-21	viscous: 7.45594e-21)
        Cl       : 1.10317	(pressure: 1.10304	viscous: 0.00013046)
        CmRoll       : -0.551587	(pressure: -0.551522	viscous: -6.52299e-05)
        CmPitch       : -0.264005	(pressure: -0.264004	viscous: -1.43238e-06)
        CmYaw       : 0.00300243	(pressure: 0.0010463	viscous: 0.00195613)
        Cd(f)    : -0.548585
        Cd(r)    : 0.55459
        Cs(f)    : 0.00300243
        Cs(r)    : -0.00300243
        Cl(f)    : 0.287582
        Cl(r)    : 0.815592
Time = 48

DILUPBiCGStab:  Solving for Ux, Initial residual = 2.63801e-07, Final residual = 3.92351e-11, No Iterations 3
DILUPBiCGStab:  Solving for Uz, Initial residual = 1.37331e-06, Final residual = 2.27623e-11, No Iterations 3
GAMG:  Solving for p, Initial residual = 3.78362e-06, Final residual = 2.99204e-07, No Iterations 4
GAMG:  Solving for p, Initial residual = 3.38742e-07, Final residual = 3.14382e-08, No Iterations 15
time step continuity errors : sum local = 1.29359e-09, global = 2.93919e-11, cumulative = 1.39714e-06
DILUPBiCGStab:  Solving for omega, Initial residual = 1.27774e-09, Final residual = 1.35328e-11, No Iterations 1
DILUPBiCGStab:  Solving for k, Initial residual = 4.14835e-07, Final residual = 4.94002e-11, No Iterations 3
ExecutionTime = 0.52 s  ClockTime = 1 s

forceCoeffs forceCoeffs1 execute:
    Coefficients
        Cd       : 0.00597802	(pressure: 0.00208037	viscous: 0.00389765)
        Cs       : -1.01501e-21	(pressure: -8.47136e-21	viscous: 7.45635e-21)
        Cl       : 1.10313	(pressure: 1.103	viscous: 0.000132818)
        CmRoll       : -0.551567	(pressure: -0.551501	viscous: -6.64092e-05)
        CmPitch       : -0.263957	(pressure: -0.263955	viscous: -1.76211e-06)
        CmYaw       : 0.00298901	(pressure: 0.00104018	viscous: 0.00194883)
        Cd(f)    : -0.548578
        Cd(r)    : 0.554556
        Cs(f)    : 0.00298901
        Cs(r)    : -0.00298901
        Cl(f)    : 0.28761
        Cl(r)    : 0.815524
Time = 49

DILUPBiCGStab:  Solving for Ux, Initial residual = 2.59692e-07, Final residual = 4.1205e-11, No Iterations 3
DILUPBiCGStab:  Solving for Uz, Initial residual = 1.35717e-06, Final residual = 2.56395e-11, No Iterations 3
GAMG:  Solving for p, Initial residual = 3.69022e-06, Final residual = 2.86635e-07, No Iterations 4
GAMG:  Solving for p, Initial residual = 3.26489e-07, Final residual = 3.02949e-08, No Iterations 15
time step continuity errors : sum local = 1.24658e-09, global = 1.30222e-11, cumulative = 1.39715e-06
DILUPBiCGStab:  Solving for omega, Initial residual = 1.21159e-09, Final residual = 1.32197e-11, No Iterations 1
DILUPBiCGStab:  Solving for k, Initial residual = 4.02917e-07, Final residual = 4.77824e-11, No Iterations 3
ExecutionTime = 0.53 s  ClockTime = 1 s

forceCoeffs forceCoeffs1 execute:
    Coefficients
        Cd       : 0.00595229	(pressure: 0.00206848	viscous: 0.00388381)
        Cs       : -1.01551e-21	(pressure: -8.47226e-21	viscous: 7.45675e-21)
        Cl       : 1.10309	(pressure: 1.10296	viscous: 0.000135075)
        CmRoll       : -0.551547	(pressure: -0.551479	viscous: -6.75374e-05)
        CmPitch       : -0.263909	(pressure: -0.263907	viscous: -2.0832e-06)
        CmYaw       : 0.00297614	(pressure: 0.00103424	viscous: 0.00194191)
        Cd(f)    : -0.54857
        Cd(r)    : 0.554523
        Cs(f)    : 0.00297614
        Cs(r)    : -0.00297614
        Cl(f)    : 0.287638
        Cl(r)    : 0.815455
Time = 50

DILUPBiCGStab:  Solving for Ux, Initial residual = 2.55168e-07, Final residual = 4.31445e-11, No Iterations 3
DILUPBiCGStab:  Solving for Uz, Initial residual = 1.34013e-06, Final residual = 3.07386e-11, No Iterations 3
GAMG:  Solving for p, Initial residual = 3.59956e-06, Final residual = 2.71234e-07, No Iterations 4
GAMG:  Solving for p, Initial residual = 3.11088e-07, Final residual = 2.87093e-08, No Iterations 15
time step continuity errors : sum local = 1.18136e-09, global = 2.91947e-11, cumulative = 1.39718e-06
DILUPBiCGStab:  Solving for omega, Initial residual = 1.14693e-09, Final residual = 1.29423e-11, No Iterations 1
DILUPBiCGStab:  Solving for k, Initial residual = 3.91169e-07, Final residual = 4.60127e-11, No Iterations 3
ExecutionTime = 0.54 s  ClockTime = 1 s

forceCoeffs forceCoeffs1 execute:
    Coefficients
        Cd       : 0.00592762	(pressure: 0.00205692	viscous: 0.00387071)
        Cs       : -1.01602e-21	(pressure: -8.47315e-21	viscous: 7.45713e-21)
        Cl       : 1.10305	(pressure: 1.10291	viscous: 0.00013723)
        CmRoll       : -0.551525	(pressure: -0.551456	viscous: -6.8615e-05)
        CmPitch       : -0.263861	(pressure: -0.263858	viscous: -2.3948e-06)
        CmYaw       : 0.00296381	(pressure: 0.00102846	viscous: 0.00193535)
        Cd(f)    : -0.548561
        Cd(r)    : 0.554489
        Cs(f)    : 0.00296381
        Cs(r)    : -0.00296381
        Cl(f)    : 0.287664
        Cl(r)    : 0.815386
Time = 51

DILUPBiCGStab:  Solving for Ux, Initial residual = 2.50417e-07, Final residual = 4.48618e-11, No Iterations 3
DILUPBiCGStab:  Solving for Uz, Initial residual = 1.32247e-06, Final residual = 4.56158e-11, No Iterations 3
GAMG:  Solving for p, Initial residual = 3.50878e-06, Final residual = 2.57272e-07, No Iterations 4
GAMG:  Solving for p, Initial residual = 2.96787e-07, Final residual = 2.95332e-08, No Iterations 15
time step continuity errors : sum local = 1.2153e-09, global = 1.12688e-11, cumulative = 1.39719e-06
DILUPBiCGStab:  Solving for omega, Initial residual = 1.08935e-09, Final residual = 1.26762e-11, No Iterations 1
DILUPBiCGStab:  Solving for k, Initial residual = 3.79663e-07, Final residual = 4.41012e-11, No Iterations 3
ExecutionTime = 0.55 s  ClockTime = 1 s

forceCoeffs forceCoeffs1 execute:
    Coefficients
        Cd       : 0.00590399	(pressure: 0.00204569	viscous: 0.0038583)
        Cs       : -1.01653e-21	(pressure: -8.47402e-21	viscous: 7.45749e-21)
        Cl       : 1.10301	(pressure: 1.10287	viscous: 0.000139287)
        CmRoll       : -0.551503	(pressure: -0.551433	viscous: -6.96433e-05)
        CmPitch       : -0.263812	(pressure: -0.26381	viscous: -2.69621e-06)
        CmYaw       : 0.00295199	(pressure: 0.00102285	viscous: 0.00192915)
        Cd(f)    : -0.548551
        Cd(r)    : 0.554455
        Cs(f)    : 0.00295199
        Cs(r)    : -0.00295199
        Cl(f)    : 0.28769
        Cl(r)    : 0.815315
Time = 52

DILUPBiCGStab:  Solving for Ux, Initial residual = 2.45504e-07, Final residual = 4.60338e-11, No Iterations 3
DILUPBiCGStab:  Solving for Uz, Initial residual = 1.30402e-06, Final residual = 8.45565e-11, No Iterations 3
GAMG:  Solving for p, Initial residual = 3.4122e-06, Final residual = 2.3617e-07, No Iterations 4
GAMG:  Solving for p, Initial residual = 2.75928e-07, Final residual = 2.73108e-08, No Iterations 15
time step continuity errors : sum local = 1.12387e-09, global = 2.81551e-11, cumulative = 1.39722e-06
DILUPBiCGStab:  Solving for omega, Initial residual = 1.03758e-09, Final residual = 1.24302e-11, No Iterations 1
DILUPBiCGStab:  Solving for k, Initial residual = 3.68663e-07, Final residual = 4.201e-11, No Iterations 3
ExecutionTime = 0.56 s  ClockTime = 1 s

forceCoeffs forceCoeffs1 execute:
    Coefficients
        Cd       : 0.00588132	(pressure: 0.00203476	viscous: 0.00384656)
        Cs       : -1.01706e-21	(pressure: -8.47489e-21	viscous: 7.45783e-21)
        Cl       : 1.10296	(pressure: 1.10282	viscous: 0.000141246)
        CmRoll       : -0.55148	(pressure: -0.551409	viscous: -7.06231e-05)
        CmPitch       : -0.263764	(pressure: -0.263761	viscous: -2.98685e-06)
        CmYaw       : 0.00294066	(pressure: 0.00101738	viscous: 0.00192328)
        Cd(f)    : -0.548539
        Cd(r)    : 0.55442
        Cs(f)    : 0.00294066
        Cs(r)    : -0.00294066
        Cl(f)    : 0.287716
        Cl(r)    : 0.815244
Time = 53

DILUPBiCGStab:  Solving for Ux, Initial residual = 2.40339e-07, Final residual = 4.66282e-11, No Iterations 3
DILUPBiCGStab:  Solving for Uz, Initial residual = 1.28486e-06, Final residual = 2.04723e-11, No Iterations 3
GAMG:  Solving for p, Initial residual = 3.3173e-06, Final residual = 3.27496e-07, No Iterations 3
GAMG:  Solving for p, Initial residual = 3.59296e-07, Final residual = 3.56449e-08, No Iterations 15
time step continuity errors : sum local = 1.46684e-09, global = 3.22824e-11, cumulative = 1.39725e-06
DILUPBiCGStab:  Solving for omega, Initial residual = 9.84816e-10, Final residual = 1.2205e-11, No Iterations 1
DILUPBiCGStab:  Solving for k, Initial residual = 3.57846e-07, Final residual = 3.98428e-11, No Iterations 3
ExecutionTime = 0.57 s  ClockTime = 1 s

forceCoeffs forceCoeffs1 execute:
    Coefficients
        Cd       : 0.00585962	(pressure: 0.00202417	viscous: 0.00383545)
        Cs       : -1.01758e-21	(pressure: -8.47575e-21	viscous: 7.45816e-21)
        Cl       : 1.10291	(pressure: 1.10277	viscous: 0.000143112)
[...]
DILUPBiCGStab:  Solving for k, Initial residual = 3.91136e-08, Final residual = 4.9078e-11, No Iterations 2
ExecutionTime = 5.54 s  ClockTime = 6 s

forceCoeffs forceCoeffs1 execute:
    Coefficients
        Cd       : 0.00629655	(pressure: 0.00267026	viscous: 0.00362628)
        Cs       : -1.12256e-21	(pressure: -8.51969e-21	viscous: 7.39713e-21)
        Cl       : 1.06391	(pressure: 1.06374	viscous: 0.000167853)
        CmRoll       : -0.531954	(pressure: -0.53187	viscous: -8.39267e-05)
        CmPitch       : -0.247391	(pressure: -0.247375	viscous: -1.65557e-05)
        CmYaw       : 0.00314827	(pressure: 0.00133513	viscous: 0.00181314)
        Cd(f)    : -0.528805
        Cd(r)    : 0.535102
        Cs(f)    : 0.00314827
        Cs(r)    : -0.00314827
        Cl(f)    : 0.284562
        Cl(r)    : 0.779345
Time = 590

DILUPBiCGStab:  Solving for Ux, Initial residual = 7.35453e-08, Final residual = 1.89671e-11, No Iterations 2
DILUPBiCGStab:  Solving for Uz, Initial residual = 1.0245e-06, Final residual = 3.78718e-11, No Iterations 3
GAMG:  Solving for p, Initial residual = 5.93729e-07, Final residual = 5.47496e-08, No Iterations 5
GAMG:  Solving for p, Initial residual = 6.10626e-08, Final residual = 5.92859e-09, No Iterations 7
time step continuity errors : sum local = 2.35906e-10, global = 4.72399e-12, cumulative = 1.39831e-06
DILUPBiCGStab:  Solving for omega, Initial residual = 9.198e-11, Final residual = 9.198e-11, No Iterations 0
DILUPBiCGStab:  Solving for k, Initial residual = 3.89312e-08, Final residual = 4.90136e-11, No Iterations 2
ExecutionTime = 5.55 s  ClockTime = 6 s

forceCoeffs forceCoeffs1 execute:
    Coefficients
        Cd       : 0.00629709	(pressure: 0.00267081	viscous: 0.00362628)
        Cs       : -1.12256e-21	(pressure: -8.51969e-21	viscous: 7.39713e-21)
        Cl       : 1.06391	(pressure: 1.06374	viscous: 0.000167853)
        CmRoll       : -0.531954	(pressure: -0.53187	viscous: -8.39265e-05)
        CmPitch       : -0.247392	(pressure: -0.247376	viscous: -1.65566e-05)
        CmYaw       : 0.00314854	(pressure: 0.00133541	viscous: 0.00181314)
        Cd(f)    : -0.528805
        Cd(r)    : 0.535102
        Cs(f)    : 0.00314854
        Cs(r)    : -0.00314854
        Cl(f)    : 0.284562
        Cl(r)    : 0.779346
Time = 591

DILUPBiCGStab:  Solving for Ux, Initial residual = 7.33452e-08, Final residual = 1.87616e-11, No Iterations 2
DILUPBiCGStab:  Solving for Uz, Initial residual = 1.02331e-06, Final residual = 3.77189e-11, No Iterations 3
GAMG:  Solving for p, Initial residual = 5.9224e-07, Final residual = 5.49124e-08, No Iterations 5
GAMG:  Solving for p, Initial residual = 6.1212e-08, Final residual = 5.91362e-09, No Iterations 7
time step continuity errors : sum local = 2.3531e-10, global = 4.63598e-12, cumulative = 1.39832e-06
DILUPBiCGStab:  Solving for omega, Initial residual = 9.34555e-11, Final residual = 9.34555e-11, No Iterations 0
DILUPBiCGStab:  Solving for k, Initial residual = 3.87449e-08, Final residual = 4.87933e-11, No Iterations 2
ExecutionTime = 5.55 s  ClockTime = 6 s

forceCoeffs forceCoeffs1 execute:
    Coefficients
        Cd       : 0.00629762	(pressure: 0.00267135	viscous: 0.00362628)
        Cs       : -1.12257e-21	(pressure: -8.51969e-21	viscous: 7.39712e-21)
        Cl       : 1.06391	(pressure: 1.06374	viscous: 0.000167853)
        CmRoll       : -0.531954	(pressure: -0.53187	viscous: -8.39263e-05)
        CmPitch       : -0.247393	(pressure: -0.247376	viscous: -1.65574e-05)
        CmYaw       : 0.00314881	(pressure: 0.00133567	viscous: 0.00181314)
        Cd(f)    : -0.528805
        Cd(r)    : 0.535103
        Cs(f)    : 0.00314881
        Cs(r)    : -0.00314881
        Cl(f)    : 0.284561
        Cl(r)    : 0.779347
Time = 592

DILUPBiCGStab:  Solving for Ux, Initial residual = 7.31415e-08, Final residual = 1.85605e-11, No Iterations 2
DILUPBiCGStab:  Solving for Uz, Initial residual = 1.0219e-06, Final residual = 3.75558e-11, No Iterations 3
GAMG:  Solving for p, Initial residual = 5.90793e-07, Final residual = 5.50716e-08, No Iterations 5
GAMG:  Solving for p, Initial residual = 6.13609e-08, Final residual = 5.89763e-09, No Iterations 7
time step continuity errors : sum local = 2.34674e-10, global = 4.549e-12, cumulative = 1.39832e-06
DILUPBiCGStab:  Solving for omega, Initial residual = 9.49193e-11, Final residual = 9.49193e-11, No Iterations 0
DILUPBiCGStab:  Solving for k, Initial residual = 3.85557e-08, Final residual = 4.84344e-11, No Iterations 2
ExecutionTime = 5.56 s  ClockTime = 6 s

forceCoeffs forceCoeffs1 execute:
    Coefficients
        Cd       : 0.00629815	(pressure: 0.00267188	viscous: 0.00362627)
        Cs       : -1.12257e-21	(pressure: -8.51969e-21	viscous: 7.39712e-21)
        Cl       : 1.06391	(pressure: 1.06374	viscous: 0.000167852)
        CmRoll       : -0.531955	(pressure: -0.531871	viscous: -8.39262e-05)
        CmPitch       : -0.247394	(pressure: -0.247377	viscous: -1.65583e-05)
        CmYaw       : 0.00314908	(pressure: 0.00133594	viscous: 0.00181314)
        Cd(f)    : -0.528806
        Cd(r)    : 0.535104
        Cs(f)    : 0.00314908
        Cs(r)    : -0.00314908
        Cl(f)    : 0.284561
        Cl(r)    : 0.779348
Time = 593

DILUPBiCGStab:  Solving for Ux, Initial residual = 7.2941e-08, Final residual = 1.83665e-11, No Iterations 2
DILUPBiCGStab:  Solving for Uz, Initial residual = 1.0205e-06, Final residual = 3.73795e-11, No Iterations 3
GAMG:  Solving for p, Initial residual = 5.89449e-07, Final residual = 5.52301e-08, No Iterations 5
GAMG:  Solving for p, Initial residual = 6.15049e-08, Final residual = 5.88314e-09, No Iterations 7
time step continuity errors : sum local = 2.34098e-10, global = 4.4733e-12, cumulative = 1.39833e-06
DILUPBiCGStab:  Solving for omega, Initial residual = 9.63717e-11, Final residual = 9.63717e-11, No Iterations 0
DILUPBiCGStab:  Solving for k, Initial residual = 3.83635e-08, Final residual = 4.79676e-11, No Iterations 2
ExecutionTime = 5.57 s  ClockTime = 6 s

forceCoeffs forceCoeffs1 execute:
    Coefficients
        Cd       : 0.00629867	(pressure: 0.00267239	viscous: 0.00362627)
        Cs       : -1.12258e-21	(pressure: -8.51969e-21	viscous: 7.39712e-21)
        Cl       : 1.06391	(pressure: 1.06374	viscous: 0.000167852)
        CmRoll       : -0.531955	(pressure: -0.531871	viscous: -8.3926e-05)
        CmPitch       : -0.247394	(pressure: -0.247378	viscous: -1.65592e-05)
        CmYaw       : 0.00314933	(pressure: 0.0013362	viscous: 0.00181314)
        Cd(f)    : -0.528806
        Cd(r)    : 0.535104
        Cs(f)    : 0.00314933
        Cs(r)    : -0.00314933
        Cl(f)    : 0.284561
        Cl(r)    : 0.779349
Time = 594

DILUPBiCGStab:  Solving for Ux, Initial residual = 7.27472e-08, Final residual = 1.81791e-11, No Iterations 2
DILUPBiCGStab:  Solving for Uz, Initial residual = 1.01887e-06, Final residual = 3.72127e-11, No Iterations 3
GAMG:  Solving for p, Initial residual = 5.88237e-07, Final residual = 5.53885e-08, No Iterations 5
GAMG:  Solving for p, Initial residual = 6.16489e-08, Final residual = 5.87113e-09, No Iterations 7
time step continuity errors : sum local = 2.3362e-10, global = 4.41976e-12, cumulative = 1.39833e-06
DILUPBiCGStab:  Solving for omega, Initial residual = 9.78127e-11, Final residual = 9.78127e-11, No Iterations 0
DILUPBiCGStab:  Solving for k, Initial residual = 3.81687e-08, Final residual = 4.74162e-11, No Iterations 2
ExecutionTime = 5.58 s  ClockTime = 6 s

forceCoeffs forceCoeffs1 execute:
    Coefficients
        Cd       : 0.00629917	(pressure: 0.0026729	viscous: 0.00362627)
        Cs       : -1.12258e-21	(pressure: -8.5197e-21	viscous: 7.39712e-21)
        Cl       : 1.06391	(pressure: 1.06374	viscous: 0.000167852)
        CmRoll       : -0.531955	(pressure: -0.531871	viscous: -8.39259e-05)
        CmPitch       : -0.247395	(pressure: -0.247378	viscous: -1.65601e-05)
        CmYaw       : 0.00314958	(pressure: 0.00133645	viscous: 0.00181313)
        Cd(f)    : -0.528806
        Cd(r)    : 0.535105
        Cs(f)    : 0.00314958
        Cs(r)    : -0.00314958
        Cl(f)    : 0.28456
        Cl(r)    : 0.77935
Time = 595

DILUPBiCGStab:  Solving for Ux, Initial residual = 7.25398e-08, Final residual = 1.79907e-11, No Iterations 2
DILUPBiCGStab:  Solving for Uz, Initial residual = 1.01699e-06, Final residual = 3.70467e-11, No Iterations 3
GAMG:  Solving for p, Initial residual = 5.87026e-07, Final residual = 5.55496e-08, No Iterations 5
GAMG:  Solving for p, Initial residual = 6.17914e-08, Final residual = 5.86208e-09, No Iterations 7
time step continuity errors : sum local = 2.3326e-10, global = 4.39635e-12, cumulative = 1.39834e-06
DILUPBiCGStab:  Solving for omega, Initial residual = 9.92432e-11, Final residual = 9.92432e-11, No Iterations 0
DILUPBiCGStab:  Solving for k, Initial residual = 3.79711e-08, Final residual = 4.6788e-11, No Iterations 2
ExecutionTime = 5.58 s  ClockTime = 6 s

forceCoeffs forceCoeffs1 execute:
    Coefficients
        Cd       : 0.00629966	(pressure: 0.0026734	viscous: 0.00362627)
        Cs       : -1.12258e-21	(pressure: -8.5197e-21	viscous: 7.39712e-21)
        Cl       : 1.06391	(pressure: 1.06374	viscous: 0.000167852)
        CmRoll       : -0.531956	(pressure: -0.531872	viscous: -8.39259e-05)
        CmPitch       : -0.247396	(pressure: -0.247379	viscous: -1.6561e-05)
        CmYaw       : 0.00314983	(pressure: 0.0013367	viscous: 0.00181313)
        Cd(f)    : -0.528806
        Cd(r)    : 0.535106
        Cs(f)    : 0.00314983
        Cs(r)    : -0.00314983
        Cl(f)    : 0.28456
        Cl(r)    : 0.779351
Time = 596

DILUPBiCGStab:  Solving for Ux, Initial residual = 7.23372e-08, Final residual = 1.78464e-11, No Iterations 2
DILUPBiCGStab:  Solving for Uz, Initial residual = 1.01485e-06, Final residual = 3.68781e-11, No Iterations 3
GAMG:  Solving for p, Initial residual = 5.85786e-07, Final residual = 5.57123e-08, No Iterations 5
GAMG:  Solving for p, Initial residual = 6.19364e-08, Final residual = 5.85515e-09, No Iterations 7
time step continuity errors : sum local = 2.32985e-10, global = 4.41029e-12, cumulative = 1.39834e-06
DILUPBiCGStab:  Solving for omega, Initial residual = 1.00661e-10, Final residual = 1.09283e-11, No Iterations 1
DILUPBiCGStab:  Solving for k, Initial residual = 3.67576e-08, Final residual = 4.00491e-11, No Iterations 2
ExecutionTime = 5.59 s  ClockTime = 6 s

forceCoeffs forceCoeffs1 execute:
    Coefficients
        Cd       : 0.00630014	(pressure: 0.00267388	viscous: 0.00362626)
        Cs       : -1.12259e-21	(pressure: -8.5197e-21	viscous: 7.39712e-21)
        Cl       : 1.06391	(pressure: 1.06374	viscous: 0.000167852)
        CmRoll       : -0.531956	(pressure: -0.531872	viscous: -8.39258e-05)
        CmPitch       : -0.247396	(pressure: -0.24738	viscous: -1.65619e-05)
        CmYaw       : 0.00315007	(pressure: 0.00133694	viscous: 0.00181313)
        Cd(f)    : -0.528806
        Cd(r)    : 0.535106
        Cs(f)    : 0.00315007
        Cs(r)    : -0.00315007
        Cl(f)    : 0.28456
        Cl(r)    : 0.779352
Time = 597

DILUPBiCGStab:  Solving for Ux, Initial residual = 7.23364e-08, Final residual = 1.76278e-11, No Iterations 2
DILUPBiCGStab:  Solving for Uz, Initial residual = 1.01271e-06, Final residual = 3.6679e-11, No Iterations 3
GAMG:  Solving for p, Initial residual = 5.84666e-07, Final residual = 5.53851e-08, No Iterations 5
GAMG:  Solving for p, Initial residual = 6.15089e-08, Final residual = 5.63483e-09, No Iterations 7
time step continuity errors : sum local = 2.24218e-10, global = 3.50899e-12, cumulative = 1.39834e-06
DILUPBiCGStab:  Solving for omega, Initial residual = 7.22667e-11, Final residual = 7.22667e-11, No Iterations 0
DILUPBiCGStab:  Solving for k, Initial residual = 4.12858e-08, Final residual = 5.89631e-11, No Iterations 2
ExecutionTime = 5.59 s  ClockTime = 6 s

forceCoeffs forceCoeffs1 execute:
    Coefficients
        Cd       : 0.00630051	(pressure: 0.00267425	viscous: 0.00362626)
        Cs       : -1.12259e-21	(pressure: -8.51971e-21	viscous: 7.39712e-21)
        Cl       : 1.06391	(pressure: 1.06374	viscous: 0.000167852)
        CmRoll       : -0.531956	(pressure: -0.531872	viscous: -8.39258e-05)
        CmPitch       : -0.247397	(pressure: -0.24738	viscous: -1.65628e-05)
        CmYaw       : 0.00315026	(pressure: 0.00133713	viscous: 0.00181313)
        Cd(f)    : -0.528806
        Cd(r)    : 0.535107
        Cs(f)    : 0.00315026
        Cs(r)    : -0.00315026
        Cl(f)    : 0.28456
        Cl(r)    : 0.779353
Time = 598

DILUPBiCGStab:  Solving for Ux, Initial residual = 7.21083e-08, Final residual = 1.7452e-11, No Iterations 2
DILUPBiCGStab:  Solving for Uz, Initial residual = 1.01015e-06, Final residual = 3.64922e-11, No Iterations 3
GAMG:  Solving for p, Initial residual = 5.86834e-07, Final residual = 5.56808e-08, No Iterations 5
GAMG:  Solving for p, Initial residual = 6.17471e-08, Final residual = 5.57022e-09, No Iterations 7
time step continuity errors : sum local = 2.21647e-10, global = 3.22971e-12, cumulative = 1.39835e-06
DILUPBiCGStab:  Solving for omega, Initial residual = 7.21273e-11, Final residual = 7.21273e-11, No Iterations 0
DILUPBiCGStab:  Solving for k, Initial residual = 4.01054e-08, Final residual = 5.88531e-11, No Iterations 2
ExecutionTime = 5.6 s  ClockTime = 6 s

forceCoeffs forceCoeffs1 execute:
    Coefficients
        Cd       : 0.00630081	(pressure: 0.00267455	viscous: 0.00362626)
        Cs       : -1.12259e-21	(pressure: -8.51971e-21	viscous: 7.39712e-21)
        Cl       : 1.06391	(pressure: 1.06375	viscous: 0.000167852)
        CmRoll       : -0.531957	(pressure: -0.531873	viscous: -8.39258e-05)
        CmPitch       : -0.247397	(pressure: -0.24738	viscous: -1.65636e-05)
        CmYaw       : 0.0031504	(pressure: 0.00133727	viscous: 0.00181313)
        Cd(f)    : -0.528806
        Cd(r)    : 0.535107
        Cs(f)    : 0.0031504
        Cs(r)    : -0.0031504
        Cl(f)    : 0.28456
        Cl(r)    : 0.779353
Time = 599

DILUPBiCGStab:  Solving for Ux, Initial residual = 7.18718e-08, Final residual = 1.72787e-11, No Iterations 2
DILUPBiCGStab:  Solving for Uz, Initial residual = 1.00729e-06, Final residual = 3.63027e-11, No Iterations 3
GAMG:  Solving for p, Initial residual = 5.87027e-07, Final residual = 5.59608e-08, No Iterations 5
GAMG:  Solving for p, Initial residual = 6.19502e-08, Final residual = 5.54373e-09, No Iterations 7
time step continuity errors : sum local = 2.20593e-10, global = 3.2209e-12, cumulative = 1.39835e-06
DILUPBiCGStab:  Solving for omega, Initial residual = 7.21707e-11, Final residual = 7.21707e-11, No Iterations 0
DILUPBiCGStab:  Solving for k, Initial residual = 3.89407e-08, Final residual = 5.67052e-11, No Iterations 2
ExecutionTime = 5.61 s  ClockTime = 6 s

forceCoeffs forceCoeffs1 execute:
    Coefficients
        Cd       : 0.00630107	(pressure: 0.00267481	viscous: 0.00362626)
        Cs       : -1.1226e-21	(pressure: -8.51972e-21	viscous: 7.39712e-21)
        Cl       : 1.06391	(pressure: 1.06375	viscous: 0.000167852)
        CmRoll       : -0.531957	(pressure: -0.531873	viscous: -8.39258e-05)
        CmPitch       : -0.247397	(pressure: -0.24738	viscous: -1.65642e-05)
        CmYaw       : 0.00315053	(pressure: 0.0013374	viscous: 0.00181313)
        Cd(f)    : -0.528806
        Cd(r)    : 0.535107
        Cs(f)    : 0.00315053
        Cs(r)    : -0.00315053
        Cl(f)    : 0.28456
        Cl(r)    : 0.779354
Time = 600

DILUPBiCGStab:  Solving for Ux, Initial residual = 7.16361e-08, Final residual = 1.71171e-11, No Iterations 2
DILUPBiCGStab:  Solving for Uz, Initial residual = 1.00418e-06, Final residual = 3.61289e-11, No Iterations 3
GAMG:  Solving for p, Initial residual = 5.85334e-07, Final residual = 5.61326e-08, No Iterations 5
GAMG:  Solving for p, Initial residual = 6.20497e-08, Final residual = 5.54704e-09, No Iterations 7
time step continuity errors : sum local = 2.20724e-10, global = 3.29857e-12, cumulative = 1.39835e-06
DILUPBiCGStab:  Solving for omega, Initial residual = 7.24795e-11, Final residual = 7.24795e-11, No Iterations 0
DILUPBiCGStab:  Solving for k, Initial residual = 3.78058e-08, Final residual = 5.30595e-11, No Iterations 2
ExecutionTime = 5.61 s  ClockTime = 6 s

forceCoeffs forceCoeffs1 execute:
    Coefficients
        Cd       : 0.00630133	(pressure: 0.00267507	viscous: 0.00362626)
        Cs       : -1.1226e-21	(pressure: -8.51972e-21	viscous: 7.39712e-21)
        Cl       : 1.06391	(pressure: 1.06375	viscous: 0.000167851)
        CmRoll       : -0.531957	(pressure: -0.531873	viscous: -8.39257e-05)
        CmPitch       : -0.247397	(pressure: -0.247381	viscous: -1.65648e-05)
        CmYaw       : 0.00315066	(pressure: 0.00133754	viscous: 0.00181313)
        Cd(f)    : -0.528806
        Cd(r)    : 0.535107
        Cs(f)    : 0.00315066
        Cs(r)    : -0.00315066
        Cl(f)    : 0.284559
        Cl(r)    : 0.779354
Time = 601

DILUPBiCGStab:  Solving for Ux, Initial residual = 7.14066e-08, Final residual = 1.6973e-11, No Iterations 2
DILUPBiCGStab:  Solving for Uz, Initial residual = 1.00086e-06, Final residual = 3.59803e-11, No Iterations 3
GAMG:  Solving for p, Initial residual = 5.82697e-07, Final residual = 5.63611e-08, No Iterations 5
GAMG:  Solving for p, Initial residual = 6.22553e-08, Final residual = 5.61557e-09, No Iterations 7
time step continuity errors : sum local = 2.23452e-10, global = 3.76004e-12, cumulative = 1.39836e-06
DILUPBiCGStab:  Solving for omega, Initial residual = 7.29521e-11, Final residual = 7.29521e-11, No Iterations 0
DILUPBiCGStab:  Solving for k, Initial residual = 3.67851e-08, Final residual = 4.87592e-11, No Iterations 2
ExecutionTime = 5.62 s  ClockTime = 6 s

forceCoeffs forceCoeffs1 execute:
    Coefficients
        Cd       : 0.00630161	(pressure: 0.00267536	viscous: 0.00362626)
        Cs       : -1.12261e-21	(pressure: -8.51973e-21	viscous: 7.39712e-21)
        Cl       : 1.06391	(pressure: 1.06375	viscous: 0.000167851)
        CmRoll       : -0.531957	(pressure: -0.531873	viscous: -8.39256e-05)
        CmPitch       : -0.247397	(pressure: -0.247381	viscous: -1.65651e-05)
        CmYaw       : 0.00315081	(pressure: 0.00133768	viscous: 0.00181313)
        Cd(f)    : -0.528806
        Cd(r)    : 0.535108
        Cs(f)    : 0.00315081
        Cs(r)    : -0.00315081
        Cl(f)    : 0.284559
        Cl(r)    : 0.779354
Time = 602

DILUPBiCGStab:  Solving for Ux, Initial residual = 7.11968e-08, Final residual = 1.68428e-11, No Iterations 2
DILUPBiCGStab:  Solving for Uz, Initial residual = 9.97347e-07, Final residual = 3.58367e-11, No Iterations 3
GAMG:  Solving for p, Initial residual = 5.79975e-07, Final residual = 5.67945e-08, No Iterations 5
GAMG:  Solving for p, Initial residual = 6.27086e-08, Final residual = 5.78084e-09, No Iterations 7
time step continuity errors : sum local = 2.30028e-10, global = 4.64236e-12, cumulative = 1.39836e-06
DILUPBiCGStab:  Solving for omega, Initial residual = 7.35894e-11, Final residual = 7.35894e-11, No Iterations 0
DILUPBiCGStab:  Solving for k, Initial residual = 3.6256e-08, Final residual = 4.42807e-11, No Iterations 2
ExecutionTime = 5.63 s  ClockTime = 6 s


SIMPLE solution converged in 602 iterations

forceCoeffs forceCoeffs1 execute:
    Coefficients
        Cd       : 0.00630193	(pressure: 0.00267567	viscous: 0.00362626)
        Cs       : -1.12261e-21	(pressure: -8.51973e-21	viscous: 7.39712e-21)
        Cl       : 1.06391	(pressure: 1.06375	viscous: 0.000167851)
        CmRoll       : -0.531957	(pressure: -0.531873	viscous: -8.39253e-05)
        CmPitch       : -0.247398	(pressure: -0.247381	viscous: -1.65654e-05)
        CmYaw       : 0.00315097	(pressure: 0.00133784	viscous: 0.00181313)
        Cd(f)    : -0.528806
        Cd(r)    : 0.535108
        Cs(f)    : 0.00315097
        Cs(r)    : -0.00315097
        Cl(f)    : 0.284559
        Cl(r)    : 0.779355
End

Finalising parallel run
